<additional>
    <vType id="car" vClass="passenger"  />
    
</additional>