<?xml version="1.0" encoding="UTF-8"?>

<!-- generated on 2022-07-06 16:07:25 by Eclipse SUMO netedit Version 1.12.0
<configuration xmlns:xsi="http://www.w3.org/2001/XMLSchema-instance" xsi:noNamespaceSchemaLocation="http://sumo.dlr.de/xsd/netconvertConfiguration.xsd">

    <input>
        <sumo-net-file value="C:\Users\xuanp\OneDrive%20-%20email.ucr.edu\Study\Cecert\CARTEEH\SUMO\sumo-main\CARTEEH\netrouGenerator\ChichagoAve\osm.net.xml"/>
    </input>

    <output>
        <output-file value="C:\Users\xuanp\OneDrive%20-%20email.ucr.edu\Study\Cecert\CARTEEH\SUMO\sumo-main\CARTEEH\netrouGenerator\ChichagoAve\osm.net.xml"/>
        <output.street-names value="true"/>
    </output>

    <processing>
        <geometry.min-radius.fix.railways value="false"/>
        <geometry.max-grade.fix value="false"/>
        <offset.disable-normalization value="true"/>
        <lefthand value="false"/>
    </processing>

    <junctions>
        <no-turnarounds value="true"/>
        <junctions.corner-detail value="5"/>
        <junctions.limit-turn-speed value="5.5"/>
        <rectangular-lane-cut value="false"/>
    </junctions>

    <pedestrian>
        <walkingareas value="false"/>
    </pedestrian>

    <netedit>
        <additional-files value="C:\Users\xuanp\OneDrive%20-%20email.ucr.edu\Study\Cecert\CARTEEH\SUMO\sumo-main\CARTEEH\netrouGenerator\ChichagoAve\busStop1.add.xml"/>
    </netedit>

    <report>
        <aggregate-warnings value="5"/>
    </report>

</configuration>
-->

<net version="1.9" junctionCornerDetail="5" limitTurnSpeed="5.50" xmlns:xsi="http://www.w3.org/2001/XMLSchema-instance" xsi:noNamespaceSchemaLocation="http://sumo.dlr.de/xsd/net_file.xsd">

    <location netOffset="-465927.28,-3758205.14" convBoundary="1074.49,880.15,2684.72,1718.80" origBoundary="-117.368848,33.963862,-117.332455,33.982988" projParameter="+proj=utm +zone=11 +ellps=WGS84 +datum=WGS84 +units=m +no_defs"/>

    <type id="highway.bridleway" priority="1" numLanes="1" speed="2.78" allow="pedestrian" oneway="1" width="2.00"/>
    <type id="highway.bus_guideway" priority="1" numLanes="1" speed="27.78" allow="bus" oneway="1"/>
    <type id="highway.cycleway" priority="1" numLanes="1" speed="8.33" allow="bicycle" oneway="0" width="1.00"/>
    <type id="highway.footway" priority="1" numLanes="1" speed="2.78" allow="pedestrian" oneway="1" width="2.00"/>
    <type id="highway.ford" priority="1" numLanes="1" speed="2.78" allow="army" oneway="0"/>
    <type id="highway.living_street" priority="2" numLanes="1" speed="2.78" disallow="tram rail_urban rail rail_electric rail_fast ship" oneway="0"/>
    <type id="highway.motorway" priority="14" numLanes="2" speed="39.44" allow="private emergency authority army vip passenger hov taxi bus coach delivery truck trailer motorcycle evehicle custom1 custom2" oneway="1"/>
    <type id="highway.motorway_link" priority="9" numLanes="1" speed="22.22" allow="private emergency authority army vip passenger hov taxi bus coach delivery truck trailer motorcycle evehicle custom1 custom2" oneway="1"/>
    <type id="highway.path" priority="1" numLanes="1" speed="2.78" allow="pedestrian bicycle" oneway="0" width="2.00"/>
    <type id="highway.pedestrian" priority="1" numLanes="1" speed="2.78" allow="pedestrian" oneway="1" width="2.00"/>
    <type id="highway.primary" priority="12" numLanes="2" speed="27.78" disallow="tram rail_urban rail rail_electric rail_fast ship" oneway="0"/>
    <type id="highway.primary_link" priority="7" numLanes="1" speed="22.22" disallow="tram rail_urban rail rail_electric rail_fast ship" oneway="0"/>
    <type id="highway.raceway" priority="15" numLanes="2" speed="83.33" allow="vip" oneway="0"/>
    <type id="highway.residential" priority="3" numLanes="1" speed="13.89" disallow="tram rail_urban rail rail_electric rail_fast ship" oneway="0"/>
    <type id="highway.secondary" priority="11" numLanes="1" speed="27.78" disallow="tram rail_urban rail rail_electric rail_fast ship" oneway="0"/>
    <type id="highway.secondary_link" priority="6" numLanes="1" speed="22.22" disallow="tram rail_urban rail rail_electric rail_fast ship" oneway="0"/>
    <type id="highway.service" priority="1" numLanes="1" speed="5.56" allow="pedestrian delivery bicycle" oneway="0"/>
    <type id="highway.stairs" priority="1" numLanes="1" speed="1.39" allow="pedestrian" oneway="1" width="2.00"/>
    <type id="highway.step" priority="1" numLanes="1" speed="1.39" allow="pedestrian" oneway="1" width="2.00"/>
    <type id="highway.steps" priority="1" numLanes="1" speed="1.39" allow="pedestrian" oneway="1" width="2.00"/>
    <type id="highway.tertiary" priority="10" numLanes="1" speed="22.22" disallow="tram rail_urban rail rail_electric rail_fast ship" oneway="0"/>
    <type id="highway.tertiary_link" priority="5" numLanes="1" speed="22.22" disallow="tram rail_urban rail rail_electric rail_fast ship" oneway="0"/>
    <type id="highway.track" priority="1" numLanes="1" speed="5.56" allow="pedestrian motorcycle moped bicycle" oneway="0"/>
    <type id="highway.trunk" priority="13" numLanes="2" speed="27.78" disallow="pedestrian bicycle tram rail_urban rail rail_electric rail_fast ship" oneway="0"/>
    <type id="highway.trunk_link" priority="8" numLanes="1" speed="22.22" disallow="pedestrian bicycle tram rail_urban rail rail_electric rail_fast ship" oneway="0"/>
    <type id="highway.unclassified" priority="4" numLanes="1" speed="13.89" disallow="tram rail_urban rail rail_electric rail_fast ship" oneway="0"/>
    <type id="highway.unsurfaced" priority="1" numLanes="1" speed="8.33" disallow="tram rail_urban rail rail_electric rail_fast ship" oneway="0"/>
    <type id="railway.highspeed" priority="21" numLanes="1" speed="69.44" allow="rail_fast" oneway="1"/>
    <type id="railway.light_rail" priority="19" numLanes="1" speed="27.78" allow="rail_urban" oneway="1"/>
    <type id="railway.preserved" priority="16" numLanes="1" speed="27.78" allow="rail" oneway="1"/>
    <type id="railway.rail" priority="20" numLanes="1" speed="44.44" allow="rail" oneway="1"/>
    <type id="railway.subway" priority="18" numLanes="1" speed="27.78" allow="rail_urban" oneway="1"/>
    <type id="railway.tram" priority="17" numLanes="1" speed="13.89" allow="tram" oneway="1"/>

    <edge id=":1391052192_0" function="internal">
        <lane id=":1391052192_0_0" index="0" disallow="pedestrian tram rail_urban rail rail_electric rail_fast ship" speed="17.88" length="8.21" shape="1888.06,1146.60 1888.32,1148.96 1888.88,1150.53 1889.47,1152.10 1889.79,1154.46"/>
        <lane id=":1391052192_0_1" index="1" disallow="pedestrian tram rail_urban rail rail_electric rail_fast ship" speed="17.88" length="8.21" shape="1884.86,1146.61 1885.12,1148.99 1885.68,1150.58 1886.27,1152.17 1886.59,1154.55"/>
        <lane id=":1391052192_0_2" index="2" disallow="pedestrian tram rail_urban rail rail_electric rail_fast ship" speed="17.88" length="8.21" shape="1881.66,1146.62 1881.92,1149.03 1882.48,1150.64 1883.07,1152.24 1883.39,1154.65"/>
        <lane id=":1391052192_0_3" index="3" disallow="pedestrian tram rail_urban rail rail_electric rail_fast ship" speed="17.88" length="8.21" shape="1881.66,1146.62 1881.42,1149.05 1880.88,1150.68 1880.37,1152.31 1880.19,1154.74"/>
    </edge>
    <edge id=":4685888670_0" function="internal">
        <lane id=":4685888670_0_0" index="0" disallow="pedestrian tram rail_urban rail rail_electric rail_fast ship" speed="27.78" length="8.01" shape="2640.79,1715.48 2632.77,1715.54"/>
    </edge>
    <edge id=":4685888670_1" function="internal">
        <lane id=":4685888670_1_0" index="0" disallow="pedestrian tram rail_urban rail rail_electric rail_fast ship" speed="27.78" length="8.53" shape="2632.74,1709.14 2635.19,1708.63 2636.72,1707.52 2638.25,1706.41 2640.70,1705.89"/>
        <lane id=":4685888670_1_1" index="1" disallow="pedestrian tram rail_urban rail rail_electric rail_fast ship" speed="27.78" length="8.53" shape="2632.76,1712.34 2635.21,1711.83 2636.74,1710.72 2638.27,1709.61 2640.73,1709.08"/>
        <lane id=":4685888670_1_2" index="2" disallow="pedestrian tram rail_urban rail rail_electric rail_fast ship" speed="27.78" length="8.53" shape="2632.76,1712.34 2640.76,1712.28"/>
    </edge>
    <edge id=":4685888671_0" function="internal">
        <lane id=":4685888671_0_0" index="0" disallow="pedestrian tram rail_urban rail rail_electric rail_fast ship" speed="27.78" length="7.99" shape="2608.63,1715.66 2600.64,1715.73"/>
    </edge>
    <edge id=":4685888671_1" function="internal">
        <lane id=":4685888671_1_0" index="0" disallow="pedestrian tram rail_urban rail rail_electric rail_fast ship" speed="27.78" length="8.41" shape="2600.61,1712.53 2603.07,1712.00 2604.60,1710.89 2606.13,1709.78 2608.59,1709.26"/>
        <lane id=":4685888671_1_1" index="1" disallow="pedestrian tram rail_urban rail rail_electric rail_fast ship" speed="27.78" length="8.41" shape="2600.61,1712.53 2608.61,1712.46"/>
    </edge>
    <edge id=":4685888672_0" function="internal">
        <lane id=":4685888672_0_0" index="0" disallow="pedestrian tram rail_urban rail rail_electric rail_fast ship" speed="27.78" length="9.22" shape="1929.15,1720.29 1926.46,1721.29 1925.15,1723.49 1923.85,1725.69 1921.16,1726.69"/>
        <lane id=":4685888672_0_1" index="1" disallow="pedestrian tram rail_urban rail rail_electric rail_fast ship" speed="27.78" length="9.22" shape="1929.15,1720.29 1926.69,1720.79 1925.15,1721.89 1923.61,1722.99 1921.15,1723.49"/>
        <lane id=":4685888672_0_2" index="2" disallow="pedestrian tram rail_urban rail rail_electric rail_fast ship" speed="27.78" length="9.22" shape="1929.15,1720.29 1921.15,1720.29"/>
    </edge>
    <edge id=":4685888672_3" function="internal">
        <lane id=":4685888672_3_0" index="0" disallow="pedestrian tram rail_urban rail rail_electric rail_fast ship" speed="27.78" length="8.00" shape="1921.15,1717.09 1929.15,1717.09"/>
    </edge>
    <edge id=":4685888682_0" function="internal">
        <lane id=":4685888682_0_0" index="0" disallow="pedestrian tram rail_urban rail rail_electric rail_fast ship" speed="27.78" length="8.00" shape="1877.72,1686.04 1877.64,1678.04"/>
        <lane id=":4685888682_0_1" index="1" disallow="pedestrian tram rail_urban rail rail_electric rail_fast ship" speed="27.78" length="8.00" shape="1880.92,1686.01 1880.84,1678.01"/>
    </edge>
    <edge id=":4685888682_2" function="internal">
        <lane id=":4685888682_2_0" index="0" disallow="pedestrian tram rail_urban rail rail_electric rail_fast ship" speed="27.78" length="8.54" shape="1887.24,1677.94 1887.76,1680.40 1888.88,1681.93 1889.99,1683.45 1890.52,1685.91"/>
        <lane id=":4685888682_2_1" index="1" disallow="pedestrian tram rail_urban rail rail_electric rail_fast ship" speed="27.78" length="8.54" shape="1884.04,1677.97 1884.56,1680.43 1885.68,1681.96 1886.79,1683.49 1887.32,1685.94"/>
        <lane id=":4685888682_2_2" index="2" disallow="pedestrian tram rail_urban rail rail_electric rail_fast ship" speed="27.78" length="8.54" shape="1884.04,1677.97 1884.12,1685.97"/>
    </edge>
    <edge id=":4685892088_0" function="internal">
        <lane id=":4685892088_0_0" index="0" disallow="pedestrian tram rail_urban rail rail_electric rail_fast ship" speed="27.78" length="8.54" shape="2325.07,1312.04 2322.61,1312.54 2321.07,1313.65 2319.54,1314.75 2317.08,1315.26"/>
        <lane id=":4685892088_0_1" index="1" disallow="pedestrian tram rail_urban rail rail_electric rail_fast ship" speed="27.78" length="8.54" shape="2325.06,1308.84 2322.60,1309.34 2321.06,1310.45 2319.53,1311.55 2317.07,1312.06"/>
        <lane id=":4685892088_0_2" index="2" disallow="pedestrian tram rail_urban rail rail_electric rail_fast ship" speed="27.78" length="8.54" shape="2325.06,1308.84 2317.06,1308.86"/>
    </edge>
    <edge id=":4685892088_3" function="internal">
        <lane id=":4685892088_3_0" index="0" disallow="pedestrian tram rail_urban rail rail_electric rail_fast ship" speed="27.78" length="8.00" shape="2317.03,1302.46 2325.03,1302.44"/>
        <lane id=":4685892088_3_1" index="1" disallow="pedestrian tram rail_urban rail rail_electric rail_fast ship" speed="27.78" length="8.00" shape="2317.04,1305.66 2325.04,1305.64"/>
    </edge>
    <edge id=":4685892089_0" function="internal">
        <lane id=":4685892089_0_0" index="0" disallow="pedestrian tram rail_urban rail rail_electric rail_fast ship" speed="27.78" length="8.00" shape="2238.78,1312.27 2230.77,1312.28"/>
        <lane id=":4685892089_0_1" index="1" disallow="pedestrian tram rail_urban rail rail_electric rail_fast ship" speed="27.78" length="8.00" shape="2238.77,1309.07 2230.77,1309.08"/>
    </edge>
    <edge id=":4685892089_2" function="internal">
        <lane id=":4685892089_2_0" index="0" disallow="pedestrian tram rail_urban rail rail_electric rail_fast ship" speed="27.78" length="9.63" shape="2230.76,1302.68 2233.45,1301.68 2234.76,1299.48 2236.06,1297.28 2238.75,1296.27"/>
        <lane id=":4685892089_2_1" index="1" disallow="pedestrian tram rail_urban rail rail_electric rail_fast ship" speed="27.78" length="9.63" shape="2230.77,1305.88 2233.46,1304.88 2234.76,1302.68 2236.07,1300.48 2238.75,1299.47"/>
        <lane id=":4685892089_2_2" index="2" disallow="pedestrian tram rail_urban rail rail_electric rail_fast ship" speed="27.78" length="9.63" shape="2230.77,1305.88 2233.23,1305.38 2234.76,1304.28 2236.30,1303.18 2238.76,1302.67"/>
        <lane id=":4685892089_2_3" index="3" disallow="pedestrian tram rail_urban rail rail_electric rail_fast ship" speed="27.78" length="9.63" shape="2230.77,1305.88 2238.77,1305.87"/>
    </edge>
    <edge id=":4689533023_0" function="internal">
        <lane id=":4689533023_0_0" index="0" disallow="pedestrian tram rail_urban rail rail_electric rail_fast ship" speed="17.88" length="8.21" shape="1886.26,1087.71 1886.51,1090.10 1887.07,1091.71 1887.63,1093.31 1887.88,1095.70"/>
        <lane id=":4689533023_0_1" index="1" disallow="pedestrian tram rail_urban rail rail_electric rail_fast ship" speed="17.88" length="8.21" shape="1883.06,1087.72 1883.31,1090.12 1883.87,1091.72 1884.43,1093.32 1884.68,1095.71"/>
        <lane id=":4689533023_0_2" index="2" disallow="pedestrian tram rail_urban rail rail_electric rail_fast ship" speed="17.88" length="8.21" shape="1879.86,1087.73 1880.11,1090.13 1880.67,1091.73 1881.23,1093.33 1881.48,1095.72"/>
    </edge>
    <edge id=":4689533024_0" function="internal">
        <lane id=":4689533024_0_0" index="0" disallow="pedestrian tram rail_urban rail rail_electric rail_fast ship" speed="17.88" length="8.21" shape="1872.28,1199.09 1872.01,1196.70 1871.45,1195.11 1870.88,1193.51 1870.60,1191.12"/>
        <lane id=":4689533024_0_1" index="1" disallow="pedestrian tram rail_urban rail rail_electric rail_fast ship" speed="17.88" length="8.21" shape="1872.28,1199.09 1872.51,1196.69 1873.05,1195.09 1873.58,1193.48 1873.80,1191.08"/>
        <lane id=":4689533024_0_2" index="2" disallow="pedestrian tram rail_urban rail rail_electric rail_fast ship" speed="17.88" length="8.21" shape="1875.48,1199.07 1875.71,1196.67 1876.25,1195.05 1876.78,1193.44 1877.00,1191.04"/>
    </edge>
    <edge id=":4689533025_0" function="internal">
        <lane id=":4689533025_0_0" index="0" disallow="pedestrian tram rail_urban rail rail_electric rail_fast ship" speed="17.88" length="8.21" shape="1891.60,1239.77 1891.87,1242.16 1892.44,1243.76 1893.01,1245.36 1893.28,1247.75"/>
        <lane id=":4689533025_0_1" index="1" disallow="pedestrian tram rail_urban rail rail_electric rail_fast ship" speed="17.88" length="8.21" shape="1888.40,1239.80 1888.67,1242.20 1889.24,1243.80 1889.81,1245.39 1890.08,1247.79"/>
        <lane id=":4689533025_0_2" index="2" disallow="pedestrian tram rail_urban rail rail_electric rail_fast ship" speed="17.88" length="8.21" shape="1885.20,1239.84 1885.47,1242.23 1886.04,1243.83 1886.61,1245.43 1886.88,1247.82"/>
        <lane id=":4689533025_0_3" index="3" disallow="pedestrian tram rail_urban rail rail_electric rail_fast ship" speed="17.88" length="8.21" shape="1882.00,1239.87 1882.27,1242.27 1882.84,1243.86 1883.41,1245.46 1883.68,1247.85"/>
        <lane id=":4689533025_0_4" index="4" disallow="pedestrian tram rail_urban rail rail_electric rail_fast ship" speed="17.88" length="8.21" shape="1882.00,1239.87 1881.77,1242.27 1881.24,1243.88 1880.71,1245.49 1880.48,1247.89"/>
    </edge>
    <edge id=":4689533031_0" function="internal">
        <lane id=":4689533031_0_0" index="0" disallow="pedestrian tram rail_urban rail rail_electric rail_fast ship" speed="17.88" length="8.20" shape="1873.33,1154.41 1873.05,1152.01 1872.48,1150.42 1871.92,1148.82 1871.65,1146.43"/>
        <lane id=":4689533031_0_1" index="1" disallow="pedestrian tram rail_urban rail rail_electric rail_fast ship" speed="17.88" length="8.20" shape="1876.53,1154.37 1876.25,1151.98 1875.68,1150.38 1875.12,1148.79 1874.85,1146.40"/>
    </edge>
    <edge id=":4689533034_0" function="internal">
        <lane id=":4689533034_0_0" index="0" disallow="pedestrian tram rail_urban rail rail_electric rail_fast ship" speed="7.39" length="5.88" shape="1883.56,983.33 1883.73,984.88 1884.20,986.24 1884.97,987.43 1886.03,988.45"/>
        <lane id=":4689533034_0_1" index="1" disallow="pedestrian tram rail_urban rail rail_electric rail_fast ship" speed="8.84" length="8.63" shape="1880.36,983.37 1880.61,985.65 1881.29,987.66 1882.41,989.41 1883.95,990.88"/>
        <lane id=":4689533034_0_2" index="2" disallow="pedestrian tram rail_urban rail rail_electric rail_fast ship" speed="9.56" length="10.20" shape="1880.36,983.37 1880.50,987.33 1880.80,990.30 1881.26,992.30 1881.87,993.32"/>
    </edge>
    <edge id=":4689533034_3" function="internal">
        <lane id=":4689533034_3_0" index="0" disallow="pedestrian tram rail_urban rail rail_electric rail_fast ship" speed="3.65" length="1.44" shape="1880.36,983.37 1879.57,984.58"/>
    </edge>
    <edge id=":4689533034_8" function="internal">
        <lane id=":4689533034_8_0" index="0" disallow="pedestrian tram rail_urban rail rail_electric rail_fast ship" speed="3.65" length="3.23" shape="1879.57,984.58 1878.78,984.99 1877.97,984.59 1877.16,983.40"/>
    </edge>
    <edge id=":4689533034_4" function="internal">
        <lane id=":4689533034_4_0" index="0" disallow="pedestrian tram rail_urban rail rail_electric rail_fast ship" speed="8.43" length="9.08" shape="1871.37,991.81 1872.54,990.64 1873.36,988.85 1873.83,986.45 1873.96,983.44"/>
        <lane id=":4689533034_4_1" index="1" disallow="pedestrian tram rail_urban rail rail_electric rail_fast ship" speed="9.09" length="10.64" shape="1871.37,991.81 1873.93,989.87 1875.75,987.82 1876.82,985.66 1877.16,983.40"/>
    </edge>
    <edge id=":4689533034_6" function="internal">
        <lane id=":4689533034_6_0" index="0" disallow="pedestrian tram rail_urban rail rail_electric rail_fast ship" speed="6.13" length="8.23" shape="1873.71,994.81 1874.19,991.81 1875.72,990.56 1878.28,991.06 1878.80,991.39"/>
        <lane id=":4689533034_6_1" index="1" disallow="pedestrian tram rail_urban rail rail_electric rail_fast ship" speed="3.91" length="5.69" shape="1873.71,994.81 1879.13,996.54"/>
    </edge>
    <edge id=":4689533034_9" function="internal">
        <lane id=":4689533034_9_0" index="0" disallow="pedestrian tram rail_urban rail rail_electric rail_fast ship" speed="6.13" length="3.63" shape="1878.80,991.39 1881.87,993.32"/>
    </edge>
    <edge id=":54287410_0" function="internal">
        <lane id=":54287410_0_0" index="0" disallow="pedestrian tram rail_urban rail rail_electric rail_fast ship" speed="3.65" length="4.67" shape="1754.15,1564.25 1755.34,1565.05 1755.74,1565.86 1755.34,1566.65 1754.13,1567.45"/>
    </edge>
    <edge id=":54287414_0" function="internal">
        <lane id=":54287414_0_0" index="0" disallow="pedestrian tram rail_urban rail rail_electric rail_fast ship" speed="6.52" length="9.03" shape="1371.54,1549.05 1369.09,1549.40 1367.33,1550.45 1366.28,1552.20 1365.92,1554.64"/>
    </edge>
    <edge id=":54287414_1" function="internal">
        <lane id=":54287414_1_0" index="0" disallow="pedestrian tram rail_urban rail rail_electric rail_fast ship" speed="13.89" length="14.50" shape="1371.54,1549.05 1357.04,1548.96"/>
    </edge>
    <edge id=":54287414_2" function="internal">
        <lane id=":54287414_2_0" index="0" disallow="pedestrian tram rail_urban rail rail_electric rail_fast ship" speed="8.02" length="14.26" shape="1371.54,1549.05 1367.69,1548.50 1364.94,1546.84 1363.28,1544.07 1362.73,1540.18"/>
    </edge>
    <edge id=":54287414_3" function="internal">
        <lane id=":54287414_3_0" index="0" disallow="pedestrian tram rail_urban rail rail_electric rail_fast ship" speed="3.65" length="4.67" shape="1371.54,1549.05 1370.34,1548.25 1369.94,1547.45 1370.34,1546.65 1371.54,1545.85"/>
    </edge>
    <edge id=":54287414_4" function="internal">
        <lane id=":54287414_4_0" index="0" disallow="pedestrian tram rail_urban rail rail_electric rail_fast ship" speed="6.53" length="9.10" shape="1365.93,1540.17 1366.28,1542.66 1367.33,1544.43 1369.09,1545.50 1371.54,1545.85"/>
    </edge>
    <edge id=":54287414_5" function="internal">
        <lane id=":54287414_5_0" index="0" disallow="pedestrian tram rail_urban rail rail_electric rail_fast ship" speed="13.89" length="14.47" shape="1365.93,1540.17 1365.92,1554.64"/>
    </edge>
    <edge id=":54287414_6" function="internal">
        <lane id=":54287414_6_0" index="0" disallow="pedestrian tram rail_urban rail rail_electric rail_fast ship" speed="7.99" length="4.11" shape="1365.93,1540.17 1365.38,1544.06 1365.28,1544.22"/>
    </edge>
    <edge id=":54287414_7" function="internal">
        <lane id=":54287414_7_0" index="0" disallow="pedestrian tram rail_urban rail rail_electric rail_fast ship" speed="3.65" length="1.44" shape="1365.93,1540.17 1365.13,1541.38"/>
    </edge>
    <edge id=":54287414_16" function="internal">
        <lane id=":54287414_16_0" index="0" disallow="pedestrian tram rail_urban rail rail_electric rail_fast ship" speed="7.99" length="10.20" shape="1365.28,1544.22 1363.71,1546.82 1360.93,1548.46 1357.04,1548.96"/>
    </edge>
    <edge id=":54287414_17" function="internal">
        <lane id=":54287414_17_0" index="0" disallow="pedestrian tram rail_urban rail rail_electric rail_fast ship" speed="3.65" length="3.23" shape="1365.13,1541.38 1364.33,1541.78 1363.53,1541.38 1362.73,1540.18"/>
    </edge>
    <edge id=":54287414_8" function="internal">
        <lane id=":54287414_8_0" index="0" disallow="pedestrian tram rail_urban rail rail_electric rail_fast ship" speed="6.49" length="9.08" shape="1357.08,1545.76 1359.55,1545.44 1361.32,1544.40 1362.38,1542.65 1362.73,1540.18"/>
    </edge>
    <edge id=":54287414_9" function="internal">
        <lane id=":54287414_9_0" index="0" disallow="pedestrian tram rail_urban rail rail_electric rail_fast ship" speed="13.89" length="14.46" shape="1357.08,1545.76 1371.54,1545.85"/>
    </edge>
    <edge id=":54287414_10" function="internal">
        <lane id=":54287414_10_0" index="0" disallow="pedestrian tram rail_urban rail rail_electric rail_fast ship" speed="8.05" length="14.26" shape="1357.08,1545.76 1360.96,1546.36 1363.72,1548.04 1365.38,1550.80 1365.92,1554.64"/>
    </edge>
    <edge id=":54287414_11" function="internal">
        <lane id=":54287414_11_0" index="0" disallow="pedestrian tram rail_urban rail rail_electric rail_fast ship" speed="3.65" length="4.67" shape="1357.08,1545.76 1358.27,1546.58 1358.66,1547.38 1358.25,1548.18 1357.04,1548.96"/>
    </edge>
    <edge id=":54287414_12" function="internal">
        <lane id=":54287414_12_0" index="0" disallow="pedestrian tram rail_urban rail rail_electric rail_fast ship" speed="6.57" length="9.14" shape="1362.72,1554.64 1362.37,1552.18 1361.31,1550.42 1359.53,1549.34 1357.04,1548.96"/>
    </edge>
    <edge id=":54287414_13" function="internal">
        <lane id=":54287414_13_0" index="0" disallow="pedestrian tram rail_urban rail rail_electric rail_fast ship" speed="13.89" length="14.45" shape="1362.72,1554.64 1362.73,1540.18"/>
    </edge>
    <edge id=":54287414_14" function="internal">
        <lane id=":54287414_14_0" index="0" disallow="pedestrian tram rail_urban rail rail_electric rail_fast ship" speed="8.01" length="4.04" shape="1362.72,1554.64 1363.28,1550.80 1363.37,1550.66"/>
    </edge>
    <edge id=":54287414_15" function="internal">
        <lane id=":54287414_15_0" index="0" disallow="pedestrian tram rail_urban rail rail_electric rail_fast ship" speed="3.65" length="1.44" shape="1362.72,1554.64 1363.53,1553.44"/>
    </edge>
    <edge id=":54287414_18" function="internal">
        <lane id=":54287414_18_0" index="0" disallow="pedestrian tram rail_urban rail rail_electric rail_fast ship" speed="8.01" length="10.14" shape="1363.37,1550.66 1364.94,1548.05 1367.69,1546.40 1371.54,1545.85"/>
    </edge>
    <edge id=":54287414_19" function="internal">
        <lane id=":54287414_19_0" index="0" disallow="pedestrian tram rail_urban rail rail_electric rail_fast ship" speed="3.65" length="3.23" shape="1363.53,1553.44 1364.33,1553.04 1365.13,1553.44 1365.92,1554.64"/>
    </edge>
    <edge id=":54287416_0" function="internal">
        <lane id=":54287416_0_0" index="0" disallow="pedestrian tram rail_urban rail rail_electric rail_fast ship" speed="6.58" length="9.18" shape="1246.61,1553.16 1246.25,1550.66 1245.19,1548.88 1243.42,1547.79 1240.94,1547.42"/>
    </edge>
    <edge id=":54287416_1" function="internal">
        <lane id=":54287416_1_0" index="0" disallow="pedestrian tram rail_urban rail rail_electric rail_fast ship" speed="13.89" length="14.52" shape="1246.61,1553.16 1246.60,1538.63"/>
    </edge>
    <edge id=":54287416_2" function="internal">
        <lane id=":54287416_2_0" index="0" disallow="pedestrian tram rail_urban rail rail_electric rail_fast ship" speed="7.99" length="4.09" shape="1246.61,1553.16 1247.16,1549.27 1247.24,1549.13"/>
    </edge>
    <edge id=":54287416_3" function="internal">
        <lane id=":54287416_3_0" index="0" disallow="pedestrian tram rail_urban rail rail_electric rail_fast ship" speed="3.65" length="1.44" shape="1246.61,1553.16 1247.41,1551.96"/>
    </edge>
    <edge id=":54287416_16" function="internal">
        <lane id=":54287416_16_0" index="0" disallow="pedestrian tram rail_urban rail rail_electric rail_fast ship" speed="7.99" length="10.20" shape="1247.24,1549.13 1248.82,1546.51 1251.60,1544.88 1255.50,1544.38"/>
    </edge>
    <edge id=":54287416_17" function="internal">
        <lane id=":54287416_17_0" index="0" disallow="pedestrian tram rail_urban rail rail_electric rail_fast ship" speed="3.65" length="3.23" shape="1247.41,1551.96 1248.20,1551.56 1249.01,1551.95 1249.81,1553.15"/>
    </edge>
    <edge id=":54287416_4" function="internal">
        <lane id=":54287416_4_0" index="0" disallow="pedestrian tram rail_urban rail rail_electric rail_fast ship" speed="6.49" length="9.08" shape="1255.45,1547.58 1252.98,1547.90 1251.22,1548.93 1250.16,1550.69 1249.81,1553.15"/>
    </edge>
    <edge id=":54287416_5" function="internal">
        <lane id=":54287416_5_0" index="0" disallow="pedestrian tram rail_urban rail rail_electric rail_fast ship" speed="13.89" length="14.51" shape="1255.45,1547.58 1240.94,1547.42"/>
    </edge>
    <edge id=":54287416_6" function="internal">
        <lane id=":54287416_6_0" index="0" disallow="pedestrian tram rail_urban rail rail_electric rail_fast ship" speed="8.07" length="14.31" shape="1255.45,1547.58 1251.58,1546.97 1248.81,1545.28 1247.15,1542.50 1246.60,1538.63"/>
    </edge>
    <edge id=":54287416_7" function="internal">
        <lane id=":54287416_7_0" index="0" disallow="pedestrian tram rail_urban rail rail_electric rail_fast ship" speed="3.65" length="4.67" shape="1255.45,1547.58 1254.26,1546.76 1253.87,1545.96 1254.29,1545.16 1255.50,1544.38"/>
    </edge>
    <edge id=":54287416_8" function="internal">
        <lane id=":54287416_8_0" index="0" disallow="pedestrian tram rail_urban rail rail_electric rail_fast ship" speed="6.59" length="9.20" shape="1249.80,1538.63 1250.16,1541.12 1251.22,1542.90 1253.00,1543.99 1255.50,1544.38"/>
    </edge>
    <edge id=":54287416_9" function="internal">
        <lane id=":54287416_9_0" index="0" disallow="pedestrian tram rail_urban rail rail_electric rail_fast ship" speed="13.89" length="14.52" shape="1249.80,1538.63 1249.81,1553.15"/>
    </edge>
    <edge id=":54287416_10" function="internal">
        <lane id=":54287416_10_0" index="0" disallow="pedestrian tram rail_urban rail rail_electric rail_fast ship" speed="7.99" length="4.08" shape="1249.80,1538.63 1249.25,1542.51 1249.16,1542.65"/>
    </edge>
    <edge id=":54287416_11" function="internal">
        <lane id=":54287416_11_0" index="0" disallow="pedestrian tram rail_urban rail rail_electric rail_fast ship" speed="3.65" length="1.44" shape="1249.80,1538.63 1249.00,1539.83"/>
    </edge>
    <edge id=":54287416_18" function="internal">
        <lane id=":54287416_18_0" index="0" disallow="pedestrian tram rail_urban rail rail_electric rail_fast ship" speed="7.99" length="10.18" shape="1249.16,1542.65 1247.59,1545.26 1244.82,1546.90 1240.94,1547.42"/>
    </edge>
    <edge id=":54287416_19" function="internal">
        <lane id=":54287416_19_0" index="0" disallow="pedestrian tram rail_urban rail rail_electric rail_fast ship" speed="3.65" length="3.23" shape="1249.00,1539.83 1248.20,1540.23 1247.40,1539.83 1246.60,1538.63"/>
    </edge>
    <edge id=":54287416_12" function="internal">