<?xml version="1.0" encoding="UTF-8"?>
<!-- generated on 2022-07-07 03:26:47.326415 by randomTrips.py v1_12_0+0000-800cb422fa4
  options: -n ChicagoAve.net.xml -r peds_cent.rou.xml -t type="adult" -c pedestrian <doubleminus>pedestrians <doubleminus>personrides taxi <doubleminus>additional-files ped.add.xml,busStop1.add.xml -p 15 -e 3600 -l
-->
<routes xmlns:xsi="http://www.w3.org/2001/XMLSchema-instance" xsi:noNamespaceSchemaLocation="http://sumo.dlr.de/xsd/routes_file.xsd">
    <person id="0" depart="0.00" type="adult">
<walk from="-7123182#2" busStop="bs_5" arrivalPos="random"/>
<ride from="626283217#0" to="7328604#11" lines="taxi"/>
    </person>
    <person id="1" depart="15.00" type="adult">
<walk from="-7276324#3" busStop="bs_5" arrivalPos="random"/>
<ride from="626283217#0" to="514518466#1" lines="taxi"/>
    </person>
    <person id="2" depart="30.00" type="adult">
<walk from="7098383#4" busStop="bs_5" arrivalPos="random"/>
<ride from="626283217#0" to="7276260#8" lines="taxi"/>
    </person>
    <person id="3" depart="45.00" type="adult">
<walk from="-474688713#4" busStop="bs_5" arrivalPos="random"/>
<ride from="626283217#0" to="7288838#0" lines="taxi"/>
    </person>
    <person id="4" depart="60.00" type="adult">
<walk from="7276260#0" busStop="bs_5" arrivalPos="random"/>
<ride from="626283217#0" to="-125135491#1" lines="taxi"/>
    </person>
    <person id="5" depart="75.00" type="adult">
<walk from="7142812#1" busStop="bs_5" arrivalPos="random"/>
<ride from="626283217#0" to="-7276260#8" lines="taxi"/>
    </person>
    <person id="6" depart="90.00" type="adult">
<walk from="80565710#2" busStop="bs_5" arrivalPos="random"/>
<ride from="626283217#0" to="-474689216" lines="taxi"/>
    </person>
    <person id="7" depart="105.00" type="adult">
<walk from="626283158" busStop="bs_5" arrivalPos="random"/>
<ride from="626283217#0" to="80565714#5" lines="taxi"/>
    </person>
    <person id="8" depart="120.00" type="adult">
<walk from="-7276260#4" busStop="bs_5" arrivalPos="random"/>
<ride from="626283217#0" to="-80798172#4" lines="taxi"/>
    </person>
    <person id="9" depart="135.00" type="adult">
<walk from="-7276260#6" busStop="bs_5" arrivalPos="random"/>
<ride from="626283217#0" to="125135491#8" lines="taxi"/>
    </person>
    <person id="10" depart="150.00" type="adult">
<walk from="-7276260#8" busStop="bs_5" arrivalPos="random"/>
<ride from="626283217#0" to="-7276260#8" lines="taxi"/>
    </person>
    <person id="11" depart="165.00" type="adult">
<walk from="474688713#4" busStop="bs_5" arrivalPos="random"/>
<ride from="626283217#0" to="-7328604#13" lines="taxi"/>
    </person>
    <person id="12" depart="180.00" type="adult">
<walk from="7288838#0" busStop="bs_5" arrivalPos="random"/>
<ride from="626283217#0" to="626284345#0" lines="taxi"/>
    </person>
    <person id="13" depart="195.00" type="adult">
<walk from="-7198375#6" busStop="bs_5" arrivalPos="random"/>
<ride from="626283217#0" to="973970332#0" lines="taxi"/>
    </person>
    <person id="14" depart="210.00" type="adult">
<walk from="-7123182#13" busStop="bs_5" arrivalPos="random"/>
<ride from="626283217#0" to="-80565710#13" lines="taxi"/>
    </person>
    <person id="15" depart="225.00" type="adult">
<walk from="7142807#0" busStop="bs_5" arrivalPos="random"/>
<ride from="626283217#0" to="80565714#5" lines="taxi"/>
    </person>
    <person id="16" depart="240.00" type="adult">
<walk from="7281814#0" busStop="bs_5" arrivalPos="random"/>
<ride from="626283217#0" to="7102287#0" lines="taxi"/>
    </person>
    <person id="17" depart="255.00" type="adult">
<walk from="626799488#0" busStop="bs_5" arrivalPos="random"/>
<ride from="626283217#0" to="80565462#8" lines="taxi"/>
    </person>
    <person id="18" depart="270.00" type="adult">
<walk from="626091626#0" busStop="bs_5" arrivalPos="random"/>
<ride from="626283217#0" to="626799488#0" lines="taxi"/>
    </person>
    <person id="19" depart="285.00" type="adult">
<walk from="-7276317#7" busStop="bs_5" arrivalPos="random"/>
<ride from="626283217#0" to="7276317#0" lines="taxi"/>
    </person>
    <person id="20" depart="300.00" type="adult">
<walk from="-7142812#4" busStop="bs_5" arrivalPos="random"/>
<ride from="626283217#0" to="626283217#0" lines="taxi"/>
    </person>
    <person id="21" depart="315.00" type="adult">
<walk from="7123182#0" busStop="bs_5" arrivalPos="random"/>
<ride from="626283217#0" to="-80565714#9" lines="taxi"/>
    </person>
    <person id="22" depart="330.00" type="adult">
<walk from="626093615#2" busStop="bs_5" arrivalPos="random"/>
<ride from="626283217#0" to="7276260#5" lines="taxi"/>
    </person>
    <person id="23" depart="345.00" type="adult">
<walk from="-80798171#2" busStop="bs_5" arrivalPos="random"/>
<ride from="626283217#0" to="475159104#0" lines="taxi"/>
    </person>
    <person id="24" depart="360.00" type="adult">
<walk from="-514518467#1" busStop="bs_5" arrivalPos="random"/>
<ride from="626283217#0" to="7127213#0" lines="taxi"/>
    </person>
    <person id="25" depart="375.00" type="adult">
<walk from="626800306#0" busStop="bs_5" arrivalPos="random"/>
<ride from="626283217#0" to="-80798171#2" lines="taxi"/>
    </person>
    <person id="26" depart="390.00" type="adult">
<walk from="626091619#0" busStop="bs_5" arrivalPos="random"/>
<ride from="626283217#0" to="80798172#4" lines="taxi"/>
    </person>
    <person id="27" depart="405.00" type="adult">
<walk from="626283155#2" busStop="bs_5" arrivalPos="random"/>
<ride from="626283217#0" to="7328604#3" lines="taxi"/>
    </person>
    <person id="28" depart="420.00" type="adult">
<walk from="626282455#0" busStop="bs_5" arrivalPos="random"/>
<ride from="626283217#0" to="80798171#11" lines="taxi"/>
    </person>
    <person id="29" depart="435.00" type="adult">
<walk from="474688713#4" busStop="bs_5" arrivalPos="random"/>
<ride from="626283217#0" to="-7281814#2" lines="taxi"/>
    </person>
    <person id="30" depart="450.00" type="adult">
<walk from="80798171#3" busStop="bs_5" arrivalPos="random"/>
<ride from="626283217#0" to="-125135491#4" lines="taxi"/>
    </person>
    <person id="31" depart="465.00" type="adult">
<walk from="7281810#0" busStop="bs_5" arrivalPos="random"/>
<ride from="626283217#0" to="80565710#0" lines="taxi"/>
    </person>
    <person id="32" depart="480.00" type="adult">
<walk from="7276324#0" busStop="bs_5" arrivalPos="random"/>
<ride from="626283217#0" to="626283151#0" lines="taxi"/>
    </person>
    <person id="33" depart="495.00" type="adult">
<walk from="125135481#0" busStop="bs_5" arrivalPos="random"/>
<ride from="626283217#0" to="-626799488#6" lines="taxi"/>
    </person>
    <person id="34" depart="510.00" type="adult">
<walk from="626288019" busStop="bs_5" arrivalPos="random"/>
<ride from="626283217#0" to="-7247663#1" lines="taxi"/>
    </person>
    <person id="35" depart="525.00" type="adult">
<walk from="475159104#0" busStop="bs_5" arrivalPos="random"/>
<ride from="626283217#0" to="-80565714#12" lines="taxi"/>
    </person>
    <person id="36" depart="540.00" type="adult">
<walk from="626283155#0" busStop="bs_5" arrivalPos="random"/>
<ride from="626283217#0" to="7078477#0" lines="taxi"/>
    </person>
    <person id="37" depart="555.00" type="adult">
<walk from="474688713#4" busStop="bs_5" arrivalPos="random"/>
<ride from="626283217#0" to="-474688713#4" lines="taxi"/>
    </person>
    <person id="38" depart="570.00" type="adult">
<walk from="-7142812#6" busStop="bs_5" arrivalPos="random"/>
<ride from="626283217#0" to="626799488#0" lines="taxi"/>
    </person>
    <person id="39" depart="585.00" type="adult">
<walk from="7276317#0" busStop="bs_5" arrivalPos="random"/>
<ride from="626283217#0" to="7276317#0" lines="taxi"/>
    </person>
    <person id="40" depart="600.00" type="adult">
<walk from="-7276324#3" busStop="bs_5" arrivalPos="random"/>
<ride from="626283217#0" to="7328604#0" lines="taxi"/>
    </person>
    <person id="41" depart="615.00" type="adult">
<walk from="-7098383#1" busStop="bs_5" arrivalPos="random"/>
<ride from="626283217#0" to="-474688705#1" lines="taxi"/>
    </person>
    <person id="42" depart="630.00" type="adult">
<walk from="7247663#0" busStop="bs_5" arrivalPos="random"/>
<ride from="626283217#0" to="-7276317#7" lines="taxi"/>
    </person>
    <person id="43" depart="645.00" type="adult">
<walk from="7078477#0" busStop="bs_5" arrivalPos="random"/>
<ride from="626283217#0" to="-80565710#3" lines="taxi"/>
    </person>
    <person id="44" depart="660.00" type="adult">
<walk from="-7142807#5" busStop="bs_5" arrivalPos="random"/>
<ride from="626283217#0" to="626283151#1" lines="taxi"/>
    </person>
    <person id="45" depart="675.00" type="adult">
<walk from="-7281814#2" busStop="bs_5" arrivalPos="random"/>
<ride from="626283217#0" to="7142807#0" lines="taxi"/>
    </person>
    <person id="46" depart="690.00" type="adult">
<walk from="-80565462#4" busStop="bs_5" arrivalPos="random"/>
<ride from="626283217#0" to="475159096#0" lines="taxi"/>
    </person>
    <person id="47" depart="705.00" type="adult">
<walk from="-80798171#10" busStop="bs_5" arrivalPos="random"/>
<ride from="626283217#0" to="-80798172#4" lines="taxi"/>
    </person>
    <person id="48" depart="720.00" type="adult">
<walk from="-7098388#2" busStop="bs_5" arrivalPos="random"/>
<ride from="626283217#0" to="80565710#14" lines="taxi"/>
    </person>
    <person id="49" depart="735.00" type="adult">
<walk from="-7276260#2" busStop="bs_5" arrivalPos="random"/>
<ride from="626283217#0" to="626800306#0" lines="taxi"/>
    </person>
    <person id="50" depart="750.00" type="adult">
<walk from="-474688713#1" busStop="bs_5" arrivalPos="random"/>
<ride from="626283217#0" to="-474688706" lines="taxi"/>
    </person>
    <person id="51" depart="765.00" type="adult">
<walk from="7142807#4" busStop="bs_5" arrivalPos="random"/>
<ride from="626283217#0" to="-7142807#5" lines="taxi"/>
    </person>
    <person id="52" depart="780.00" type="adult">
<walk from="7123182#0" busStop="bs_5" arrivalPos="random"/>
<ride from="626283217#0" to="626283158" lines="taxi"/>
    </person>
    <person id="53" depart="795.00" type="adult">
<walk from="80798172#2" busStop="bs_5" arrivalPos="random"/>
<ride from="626283217#0" to="7276317#0" lines="taxi"/>
    </person>
    <person id="54" depart="810.00" type="adult">
<walk from="-7276260#7" busStop="bs_5" arrivalPos="random"/>
<ride from="626283217#0" to="7098383#4" lines="taxi"/>
    </person>
    <person id="55" depart="825.00" type="adult">
<walk from="626288022" busStop="bs_5" arrivalPos="random"/>
<ride from="626283217#0" to="-80565462#4" lines="taxi"/>
    </person>
    <person id="56" depart="840.00" type="adult">
<walk from="-626799488#6" busStop="bs_5" arrivalPos="random"/>
<ride from="626283217#0" to="-7328604#2" lines="taxi"/>
    </person>
    <person id="57" depart="855.00" type="adult">
<walk from="80565462#2" busStop="bs_5" arrivalPos="random"/>
<ride from="626283217#0" to="-7328604#5" lines="taxi"/>
    </person>
    <person id="58" depart="870.00" type="adult">
<walk from="-7328604#7" busStop="bs_5" arrivalPos="random"/>
<ride from="626283217#0" to="80565714#5" lines="taxi"/>
    </person>
    <person id="59" depart="885.00" type="adult">
<walk from="-80798172#3" busStop="bs_5" arrivalPos="random"/>
<ride from="626283217#0" to="-7276324#3" lines="taxi"/>
    </person>
    <person id="60" depart="900.00" type="adult">
<walk from="80565462#5" busStop="bs_5" arrivalPos="random"/>
<ride from="626283217#0" to="-474689218#8" lines="taxi"/>
    </person>
    <person id="61" depart="915.00" type="adult">
<walk from="80798171#7" busStop="bs_5" arrivalPos="random"/>
<ride from="626283217#0" to="626288020#0" lines="taxi"/>
    </person>
    <person id="62" depart="930.00" type="adult">
<walk from="7328604#9" busStop="bs_5" arrivalPos="random"/>
<ride from="626283217#0" to="80798172#2" lines="taxi"/>
    </person>
    <person id="63" depart="945.00" type="adult">
<walk from="626093615#2" busStop="bs_5" arrivalPos="random"/>
<ride from="626283217#0" to="-80565714#9" lines="taxi"/>
    </person>
    <person id="64" depart="960.00" type="adult">
<walk from="-7276260#2" busStop="bs_5" arrivalPos="random"/>
<ride from="626283217#0" to="7102287#0" lines="taxi"/>
    </person>
    <person id="65" depart="975.00" type="adult">
<walk from="-7237382#1" busStop="bs_5" arrivalPos="random"/>
<ride from="626283217#0" to="-7098388#2" lines="taxi"/>
    </person>
    <person id="66" depart="990.00" type="adult">
<walk from="-7328604#2" busStop="bs_5" arrivalPos="random"/>
<ride from="626283217#0" to="626091617#1" lines="taxi"/>
    </person>
    <person id="67" depart="1005.00" type="adult">
<walk from="80565462#2" busStop="bs_5" arrivalPos="random"/>
<ride from="626283217#0" to="80565710#14" lines="taxi"/>
    </person>
    <person id="68" depart="1020.00" type="adult">
<walk from="-7247663#1" busStop="bs_5" arrivalPos="random"/>
<ride from="626283217#0" to="-80565710#1" lines="taxi"/>
    </person>
    <person id="69" depart="1035.00" type="adult">
<walk from="7276260#7" busStop="bs_5" arrivalPos="random"/>
<ride from="626283217#0" to="-80565710#18" lines="taxi"/>
    </person>
    <person id="70" depart="1050.00" type="adult">
<walk from="7123182#0" busStop="bs_5" arrivalPos="random"/>
<ride from="626283217#0" to="7288838#0" lines="taxi"/>
    </person>
    <person id="71" depart="1065.00" type="adult">
<walk from="-80565710#3" busStop="bs_5" arrivalPos="random"/>
<ride from="626283217#0" to="80565462#8" lines="taxi"/>
    </person>
    <person id="72" depart="1080.00" type="adult">
<walk from="475159104#0" busStop="bs_5" arrivalPos="random"/>
<ride from="626283217#0" to="973970332#0" lines="taxi"/>
    </person>
    <person id="73" depart="1095.00" type="adult">
<walk from="7142812#1" busStop="bs_5" arrivalPos="random"/>
<ride from="626283217#0" to="-7098383#1" lines="taxi"/>
    </person>
    <person id="74" depart="1110.00" type="adult">
<walk from="80565710#4" busStop="bs_5" arrivalPos="random"/>
<ride from="626283217#0" to="-7276260#4" lines="taxi"/>
    </person>
    <person id="75" depart="1125.00" type="adult">
<walk from="626800306#0" busStop="bs_5" arrivalPos="random"/>
<ride from="626283217#0" to="7328604#0" lines="taxi"/>
    </person>
    <person id="76" depart="1140.00" type="adult">
<walk from="-80565710#18" busStop="bs_5" arrivalPos="random"/>
<ride from="626283217#0" to="-7328604#14" lines="taxi"/>
    </person>
    <person id="77" depart="1155.00" type="adult">
<walk from="626800306#0" busStop="bs_5" arrivalPos="random"/>
<ride from="626283217#0" to="80798171#11" lines="taxi"/>
    </person>
    <person id="78" depart="1170.00" type="adult">
<walk from="-7123182#2" busStop="bs_5" arrivalPos="random"/>
<ride from="626283217#0" to="626283217#0" lines="taxi"/>
    </person>
    <person id="79" depart="1185.00" type="adult">
<walk from="-475159105#4" busStop="bs_5" arrivalPos="random"/>
<ride from="626283217#0" to="-7090087#1" lines="taxi"/>
    </person>
    <person id="80" depart="1200.00" type="adult">
<walk from="7276260#8" busStop="bs_5" arrivalPos="random"/>
<ride from="626283217#0" to="7281814#0" lines="taxi"/>
    </person>
    <person id="81" depart="1215.00" type="adult">
<walk from="704059224" busStop="bs_5" arrivalPos="random"/>
<ride from="626283217#0" to="7276260#7" lines="taxi"/>
    </person>
    <person id="82" depart="1230.00" type="adult">
<walk from="626288020#0" busStop="bs_5" arrivalPos="random"/>
<ride from="626283217#0" to="-7276260#7" lines="taxi"/>
    </person>
    <person id="83" depart="1245.00" type="adult">
<walk from="-7281814#2" busStop="bs_5" arrivalPos="random"/>
<ride from="626283217#0" to="80565710#11" lines="taxi"/>
    </person>
    <person id="84" depart="1260.00" type="adult">
<walk from="80565714#10" busStop="bs_5" arrivalPos="random"/>
<ride from="626283217#0" to="474688713#4" lines="taxi"/>
    </person>
    <person id="85" depart="1275.00" type="adult">
<walk from="7276260#8" busStop="bs_5" arrivalPos="random"/>
<ride from="626283217#0" to="7281814#0" lines="taxi"/>
    </person>
    <person id="86" depart="1290.00" type="adult">
<walk from="7102287#0" busStop="bs_5" arrivalPos="random"/>
<ride from="626283217#0" to="-7098383#7" lines="taxi"/>
    </person>
    <person id="87" depart="1305.00" type="adult">
<walk from="80565462#8" busStop="bs_5" arrivalPos="random"/>
<ride from="626283217#0" to="-475159105#4" lines="taxi"/>
    </person>
    <person id="88" depart="1320.00" type="adult">
<walk from="973970332#0" busStop="bs_5" arrivalPos="random"/>
<ride from="626283217#0" to="-80798172#4" lines="taxi"/>
    </person>
    <person id="89" depart="1335.00" type="adult">
<walk from="-7142812#4" busStop="bs_5" arrivalPos="random"/>
<ride from="626283217#0" to="-7276317#7" lines="taxi"/>
    </person>
    <person id="90" depart="1350.00" type="adult">
<walk from="-7098388#2" busStop="bs_5" arrivalPos="random"/>
<ride from="626283217#0" to="80565710#4" lines="taxi"/>
    </person>
    <person id="91" depart="1365.00" type="adult">
<walk from="80798172#0" busStop="bs_5" arrivalPos="random"/>
<ride from="626283217#0" to="80565710#4" lines="taxi"/>
    </person>
    <person id="92" depart="1380.00" type="adult">
<walk from="-7276324#3" busStop="bs_5" arrivalPos="random"/>
<ride from="626283217#0" to="475159101" lines="taxi"/>
    </person>
    <person id="93" depart="1395.00" type="adult">
<walk from="7098388#0" busStop="bs_5" arrivalPos="random"/>
<ride from="626283217#0" to="-475159105#4" lines="taxi"/>
    </person>
    <person id="94" depart="1410.00" type="adult">
<walk from="80798172#4" busStop="bs_5" arrivalPos="random"/>
<ride from="626283217#0" to="-7328604#2" lines="taxi"/>
    </person>
    <person id="95" depart="1425.00" type="adult">
<walk from="474688712#0" busStop="bs_5" arrivalPos="random"/>
<ride from="626283217#0" to="-7328604#7" lines="taxi"/>
    </person>
    <person id="96" depart="1440.00" type="adult">
<walk from="80565710#7" busStop="bs_5" arrivalPos="random"/>
<ride from="626283217#0" to="80798172#0" lines="taxi"/>
    </person>
    <person id="97" depart="1455.00" type="adult">
<walk from="-7098388#2" busStop="bs_5" arrivalPos="random"/>
<ride from="626283217#0" to="-7276260#4" lines="taxi"/>
    </person>
    <person id="98" depart="1470.00" type="adult">
<walk from="80798172#4" busStop="bs_5" arrivalPos="random"/>
<ride from="626283217#0" to="626283158" lines="taxi"/>
    </person>
    <person id="99" depart="1485.00" type="adult">
<walk from="7098388#0" busStop="bs_5" arrivalPos="random"/>
<ride from="626283217#0" to="-7281810#1" lines="taxi"/>
    </person>
    <person id="100" depart="1500.00" type="adult">
<walk from="-7328604#5" busStop="bs_5" arrivalPos="random"/>
<ride from="626283217#0" to="-7276317#7" lines="taxi"/>
    </person>
    <person id="101" depart="1515.00" type="adult">
<walk from="-7288838#1" busStop="bs_5" arrivalPos="random"/>
<ride from="626283217#0" to="80798172#4" lines="taxi"/>
    </person>
    <person id="102" depart="1530.00" type="adult">
<walk from="7098388#0" busStop="bs_5" arrivalPos="random"/>
<ride from="626283217#0" to="7098383#2" lines="taxi"/>
    </person>
    <person id="103" depart="1545.00" type="adult">
<walk from="-80798171#12" busStop="bs_5" arrivalPos="random"/>
<ride from="626283217#0" to="-7328604#5" lines="taxi"/>
    </person>
    <person id="104" depart="1560.00" type="adult">
<walk from="-80565462#3" busStop="bs_5" arrivalPos="random"/>
<ride from="626283217#0" to="7328604#11" lines="taxi"/>
    </person>
    <person id="105" depart="1575.00" type="adult">
<walk from="-7328604#5" busStop="bs_5" arrivalPos="random"/>
<ride from="626283217#0" to="-80565710#13" lines="taxi"/>
    </person>
    <person id="106" depart="1590.00" type="adult">
<walk from="626288024#0" busStop="bs_5" arrivalPos="random"/>
<ride from="626283217#0" to="626800306#0" lines="taxi"/>
    </person>
    <person id="107" depart="1605.00" type="adult">
<walk from="-474688713#1" busStop="bs_5" arrivalPos="random"/>
<ride from="626283217#0" to="-7276317#7" lines="taxi"/>
    </person>
    <person id="108" depart="1620.00" type="adult">
<walk from="626283217#0" busStop="bs_5" arrivalPos="random"/>
<ride from="626283217#0" to="-7078477#1" lines="taxi"/>
    </person>
    <person id="109" depart="1635.00" type="adult">
<walk from="7090087#0" busStop="bs_5" arrivalPos="random"/>
<ride from="626283217#0" to="-7328604#13" lines="taxi"/>
    </person>
    <person id="110" depart="1650.00" type="adult">
<walk from="475159105#1" busStop="bs_5" arrivalPos="random"/>
<ride from="626283217#0" to="7328604#3" lines="taxi"/>
    </person>
    <person id="111" depart="1665.00" type="adult">
<walk from="626091617#1" busStop="bs_5" arrivalPos="random"/>
<ride from="626283217#0" to="7276267#0" lines="taxi"/>
    </person>
    <person id="112" depart="1680.00" type="adult">
<walk from="80798171#10" busStop="bs_5" arrivalPos="random"/>
<ride from="626283217#0" to="-7142812#4" lines="taxi"/>
    </person>
    <person id="113" depart="1695.00" type="adult">
<walk from="973970332#0" busStop="bs_5" arrivalPos="random"/>
<ride from="626283217#0" to="7281810#0" lines="taxi"/>
    </person>
    <person id="114" depart="1710.00" type="adult">
<walk from="-7098388#2" busStop="bs_5" arrivalPos="random"/>
<ride from="626283217#0" to="626282455#0" lines="taxi"/>
    </person>
    <person id="115" depart="1725.00" type="adult">
<walk from="-7328604#14" busStop="bs_5" arrivalPos="random"/>
<ride from="626283217#0" to="80565710#11" lines="taxi"/>
    </person>
    <person id="116" depart="1740.00" type="adult">
<walk from="80565710#4" busStop="bs_5" arrivalPos="random"/>
<ride from="626283217#0" to="-474689217" lines="taxi"/>
    </person>
    <person id="117" depart="1755.00" type="adult">
<walk from="80565710#2" busStop="bs_5" arrivalPos="random"/>
<ride from="626283217#0" to="7276317#0" lines="taxi"/>
    </person>
    <person id="118" depart="1770.00" type="adult">
<walk from="7328604#0" busStop="bs_5" arrivalPos="random"/>
<ride from="626283217#0" to="7237382#0" lines="taxi"/>
    </person>
    <person id="119" depart="1785.00" type="adult">
<walk from="-7142812#6" busStop="bs_5" arrivalPos="random"/>
<ride from="626283217#0" to="125135491#5" lines="taxi"/>
    </person>
    <person id="120" depart="1800.00" type="adult">
<walk from="7142807#2" busStop="bs_5" arrivalPos="random"/>
<ride from="626283217#0" to="7098388#0" lines="taxi"/>
    </person>
    <person id="121" depart="1815.00" type="adult">
<walk from="-7078477#1" busStop="bs_5" arrivalPos="random"/>
<ride from="626283217#0" to="80798171#7" lines="taxi"/>
    </person>
    <person id="122" depart="1830.00" type="adult">
<walk from="626283217#0" busStop="bs_5" arrivalPos="random"/>
<ride from="626283217#0" to="626283158" lines="taxi"/>
    </person>
    <person id="123" depart="1845.00" type="adult">
<walk from="474688713#2" busStop="bs_5" arrivalPos="random"/>
<ride from="626283217#0" to="-80798171#5" lines="taxi"/>
    </person>
    <person id="124" depart="1860.00" type="adult">
<walk from="-7276324#3" busStop="bs_5" arrivalPos="random"/>
<ride from="626283217#0" to="-474688713#3" lines="taxi"/>
    </person>
    <person id="125" depart="1875.00" type="adult">
<walk from="-80798172#4" busStop="bs_5" arrivalPos="random"/>
<ride from="626283217#0" to="626288020#0" lines="taxi"/>
    </person>
    <person id="126" depart="1890.00" type="adult">
<walk from="-80565710#7" busStop="bs_5" arrivalPos="random"/>
<ride from="626283217#0" to="-7123182#6" lines="taxi"/>
    </person>
    <person id="127" depart="1905.00" type="adult">
<walk from="-7281810#1" busStop="bs_5" arrivalPos="random"/>
<ride from="626283217#0" to="7281814#0" lines="taxi"/>
    </person>
    <person id="128" depart="1920.00" type="adult">
<walk from="-80798171#8" busStop="bs_5" arrivalPos="random"/>
<ride from="626283217#0" to="654487789#0" lines="taxi"/>
    </person>
    <person id="129" depart="1935.00" type="adult">
<walk from="-125135491#4" busStop="bs_5" arrivalPos="random"/>
<ride from="626283217#0" to="626283151#1" lines="taxi"/>
    </person>
    <person id="130" depart="1950.00" type="adult">
<walk from="7098383#4" busStop="bs_5" arrivalPos="random"/>
<ride from="626283217#0" to="125135491#8" lines="taxi"/>
    </person>
    <person id="131" depart="1965.00" type="adult">
<walk from="7142812#1" busStop="bs_5" arrivalPos="random"/>
<ride from="626283217#0" to="-7276267#3" lines="taxi"/>
    </person>
    <person id="132" depart="1980.00" type="adult">
<walk from="475159102#1" busStop="bs_5" arrivalPos="random"/>
<ride from="626283217#0" to="-7276260#7" lines="taxi"/>
    </person>
    <person id="133" depart="1995.00" type="adult">
<walk from="626284345#0" busStop="bs_5" arrivalPos="random"/>
<ride from="626283217#0" to="80565710#4" lines="taxi"/>
    </person>
    <person id="134" depart="2010.00" type="adult">
<walk from="-7288835#1" busStop="bs_5" arrivalPos="random"/>
<ride from="626283217#0" to="7098383#2" lines="taxi"/>
    </person>
    <person id="135" depart="2025.00" type="adult">
<walk from="-7078477#1" busStop="bs_5" arrivalPos="random"/>
<ride from="626283217#0" to="626112463#0" lines="taxi"/>
    </person>
    <person id="136" depart="2040.00" type="adult">
<walk from="-7142807#3" busStop="bs_5" arrivalPos="random"/>
<ride from="626283217#0" to="7276260#0" lines="taxi"/>
    </person>
    <person id="137" depart="2055.00" type="adult">
<walk from="-7328604#7" busStop="bs_5" arrivalPos="random"/>
<ride from="626283217#0" to="7123182#7" lines="taxi"/>
    </person>
    <person id="138" depart="2070.00" type="adult">
<walk from="-80565714#4" busStop="bs_5" arrivalPos="random"/>
<ride from="626283217#0" to="7127213#0" lines="taxi"/>
    </person>
    <person id="139" depart="2085.00" type="adult">
<walk from="626800306#0" busStop="bs_5" arrivalPos="random"/>
<ride from="626283217#0" to="7328604#14" lines="taxi"/>
    </person>
    <person id="140" depart="2100.00" type="adult">
<walk from="80798171#3" busStop="bs_5" arrivalPos="random"/>
<ride from="626283217#0" to="626288020#0" lines="taxi"/>
    </person>
    <person id="141" depart="2115.00" type="adult">
<walk from="-7276324#3" busStop="bs_5" arrivalPos="random"/>
<ride from="626283217#0" to="-7276260#4" lines="taxi"/>
    </person>
    <person id="142" depart="2130.00" type="adult">
<walk from="7247663#0" busStop="bs_5" arrivalPos="random"/>
<ride from="626283217#0" to="-626799488#6" lines="taxi"/>
    </person>
    <person id="143" depart="2145.00" type="adult">
<walk from="7142807#4" busStop="bs_5" arrivalPos="random"/>
<ride from="626283217#0" to="-80565710#6" lines="taxi"/>
    </person>
    <person id="144" depart="2160.00" type="adult">
<walk from="-7142812#4" busStop="bs_5" arrivalPos="random"/>
<ride from="626283217#0" to="7142812#1" lines="taxi"/>
    </person>
    <person id="145" depart="2175.00" type="adult">
<walk from="80798172#4" busStop="bs_5" arrivalPos="random"/>
<ride from="626283217#0" to="7276324#0" lines="taxi"/>
    </person>
    <person id="146" depart="2190.00" type="adult">
<walk from="-7281814#2" busStop="bs_5" arrivalPos="random"/>
<ride from="626283217#0" to="80565710#7" lines="taxi"/>
    </person>
    <person id="147" depart="2205.00" type="adult">
<walk from="-7123182#6" busStop="bs_5" arrivalPos="random"/>
<ride from="626283217#0" to="7276260#5" lines="taxi"/>
    </person>
    <person id="148" depart="2220.00" type="adult">
<walk from="7098388#0" busStop="bs_5" arrivalPos="random"/>
<ride from="626283217#0" to="7127213#0" lines="taxi"/>
    </person>
    <person id="149" depart="2235.00" type="adult">
<walk from="80565714#0" busStop="bs_5" arrivalPos="random"/>
<ride from="626283217#0" to="80798172#0" lines="taxi"/>
    </person>
    <person id="150" depart="2250.00" type="adult">
<walk from="7276317#0" busStop="bs_5" arrivalPos="random"/>
<ride from="626283217#0" to="125135491#5" lines="taxi"/>
    </person>
    <person id="151" depart="2265.00" type="adult">
<walk from="-80565710#1" busStop="bs_5" arrivalPos="random"/>
<ride from="626283217#0" to="-7123182#18" lines="taxi"/>
    </person>
    <person id="152" depart="2280.00" type="adult">
<walk from="80798171#3" busStop="bs_5" arrivalPos="random"/>
<ride from="626283217#0" to="-7123182#13" lines="taxi"/>
    </person>
    <person id="153" depart="2295.00" type="adult">
<walk from="-80798172#1" busStop="bs_5" arrivalPos="random"/>
<ride from="626283217#0" to="-7123182#13" lines="taxi"/>
    </person>
    <person id="154" depart="2310.00" type="adult">
<walk from="-7276317#7" busStop="bs_5" arrivalPos="random"/>
<ride from="626283217#0" to="7237382#0" lines="taxi"/>
    </person>
    <person id="155" depart="2325.00" type="adult">
<walk from="-7237382#1" busStop="bs_5" arrivalPos="random"/>
<ride from="626283217#0" to="125135491#8" lines="taxi"/>
    </person>
    <person id="156" depart="2340.00" type="adult">
<walk from="7078477#0" busStop="bs_5" arrivalPos="random"/>
<ride from="626283217#0" to="626800306#0" lines="taxi"/>
    </person>
    <person id="157" depart="2355.00" type="adult">
<walk from="-7276260#2" busStop="bs_5" arrivalPos="random"/>
<ride from="626283217#0" to="-7328604#10" lines="taxi"/>
    </person>
    <person id="158" depart="2370.00" type="adult">