<?xml version="1.0" encoding="UTF-8"?>

<!-- generated on 2022-06-27 07:53:30 by Eclipse SUMO netedit Version 1.12.0
<configuration xmlns:xsi="http://www.w3.org/2001/XMLSchema-instance" xsi:noNamespaceSchemaLocation="http://sumo.dlr.de/xsd/netconvertConfiguration.xsd">

    <input>
        <sumo-net-file value="C:\Users\xuanp\OneDrive%20-%20email.ucr.edu\Study\Cecert\CARTEEH\SUMO\sumo-main\CARTEEH\netrouGenerator\urban.net.xml"/>
    </input>

    <output>
        <output-file value="C:\Users\xuanp\OneDrive%20-%20email.ucr.edu\Study\Cecert\CARTEEH\SUMO\sumo-main\CARTEEH\netrouGenerator\urban.net.xml"/>
        <output.street-names value="true"/>
    </output>

    <processing>
        <geometry.min-radius.fix.railways value="false"/>
        <geometry.max-grade.fix value="false"/>
        <offset.disable-normalization value="true"/>
        <lefthand value="false"/>
    </processing>

    <junctions>
        <no-turnarounds value="true"/>
        <junctions.corner-detail value="5"/>
        <junctions.limit-turn-speed value="5.5"/>
        <rectangular-lane-cut value="false"/>
    </junctions>

    <pedestrian>
        <walkingareas value="false"/>
    </pedestrian>

    <report>
        <aggregate-warnings value="5"/>
    </report>

</configuration>
-->

<net version="1.9" junctionCornerDetail="5" limitTurnSpeed="5.50" xmlns:xsi="http://www.w3.org/2001/XMLSchema-instance" xsi:noNamespaceSchemaLocation="http://sumo.dlr.de/xsd/net_file.xsd">

    <location netOffset="-466270.71,-3758205.14" convBoundary="731.81,1296.04,2361.30,2932.41" origBoundary="-117.365162,33.963862,-117.332883,34.012538" projParameter="+proj=utm +zone=11 +ellps=WGS84 +datum=WGS84 +units=m +no_defs"/>

    <type id="highway.bridleway" priority="1" numLanes="1" speed="2.78" allow="pedestrian" oneway="1" width="2.00"/>
    <type id="highway.bus_guideway" priority="1" numLanes="1" speed="27.78" allow="bus" oneway="1"/>
    <type id="highway.cycleway" priority="1" numLanes="1" speed="8.33" allow="bicycle" oneway="0" width="1.00"/>
    <type id="highway.footway" priority="1" numLanes="1" speed="2.78" allow="pedestrian" oneway="1" width="2.00"/>
    <type id="highway.ford" priority="1" numLanes="1" speed="2.78" allow="army" oneway="0"/>
    <type id="highway.living_street" priority="2" numLanes="1" speed="2.78" disallow="tram rail_urban rail rail_electric rail_fast ship" oneway="0"/>
    <type id="highway.motorway" priority="14" numLanes="2" speed="39.44" allow="private emergency authority army vip passenger hov taxi bus coach delivery truck trailer motorcycle evehicle custom1 custom2" oneway="1"/>
    <type id="highway.motorway_link" priority="9" numLanes="1" speed="22.22" allow="private emergency authority army vip passenger hov taxi bus coach delivery truck trailer motorcycle evehicle custom1 custom2" oneway="1"/>
    <type id="highway.path" priority="1" numLanes="1" speed="2.78" allow="pedestrian bicycle" oneway="0" width="2.00"/>
    <type id="highway.pedestrian" priority="1" numLanes="1" speed="2.78" allow="pedestrian" oneway="1" width="2.00"/>
    <type id="highway.primary" priority="12" numLanes="2" speed="27.78" disallow="tram rail_urban rail rail_electric rail_fast ship" oneway="0"/>
    <type id="highway.primary_link" priority="7" numLanes="1" speed="22.22" disallow="tram rail_urban rail rail_electric rail_fast ship" oneway="0"/>
    <type id="highway.raceway" priority="15" numLanes="2" speed="83.33" allow="vip" oneway="0"/>
    <type id="highway.residential" priority="3" numLanes="1" speed="13.89" disallow="tram rail_urban rail rail_electric rail_fast ship" oneway="0"/>
    <type id="highway.secondary" priority="11" numLanes="1" speed="27.78" disallow="tram rail_urban rail rail_electric rail_fast ship" oneway="0"/>
    <type id="highway.secondary_link" priority="6" numLanes="1" speed="22.22" disallow="tram rail_urban rail rail_electric rail_fast ship" oneway="0"/>
    <type id="highway.service" priority="1" numLanes="1" speed="5.56" allow="pedestrian delivery bicycle" oneway="0"/>
    <type id="highway.stairs" priority="1" numLanes="1" speed="1.39" allow="pedestrian" oneway="1" width="2.00"/>
    <type id="highway.step" priority="1" numLanes="1" speed="1.39" allow="pedestrian" oneway="1" width="2.00"/>
    <type id="highway.steps" priority="1" numLanes="1" speed="1.39" allow="pedestrian" oneway="1" width="2.00"/>
    <type id="highway.tertiary" priority="10" numLanes="1" speed="22.22" disallow="tram rail_urban rail rail_electric rail_fast ship" oneway="0"/>
    <type id="highway.tertiary_link" priority="5" numLanes="1" speed="22.22" disallow="tram rail_urban rail rail_electric rail_fast ship" oneway="0"/>
    <type id="highway.track" priority="1" numLanes="1" speed="5.56" allow="pedestrian motorcycle moped bicycle" oneway="0"/>
    <type id="highway.trunk" priority="13" numLanes="2" speed="27.78" disallow="pedestrian bicycle tram rail_urban rail rail_electric rail_fast ship" oneway="0"/>
    <type id="highway.trunk_link" priority="8" numLanes="1" speed="22.22" disallow="pedestrian bicycle tram rail_urban rail rail_electric rail_fast ship" oneway="0"/>
    <type id="highway.unclassified" priority="4" numLanes="1" speed="13.89" disallow="tram rail_urban rail rail_electric rail_fast ship" oneway="0"/>
    <type id="highway.unsurfaced" priority="1" numLanes="1" speed="8.33" disallow="tram rail_urban rail rail_electric rail_fast ship" oneway="0"/>
    <type id="railway.highspeed" priority="21" numLanes="1" speed="69.44" allow="rail_fast" oneway="1"/>
    <type id="railway.light_rail" priority="19" numLanes="1" speed="27.78" allow="rail_urban" oneway="1"/>
    <type id="railway.preserved" priority="16" numLanes="1" speed="27.78" allow="rail" oneway="1"/>
    <type id="railway.rail" priority="20" numLanes="1" speed="44.44" allow="rail" oneway="1"/>
    <type id="railway.subway" priority="18" numLanes="1" speed="27.78" allow="rail_urban" oneway="1"/>
    <type id="railway.tram" priority="17" numLanes="1" speed="13.89" allow="tram" oneway="1"/>

    <edge id=":1343105011_0" function="internal">
        <lane id=":1343105011_0_0" index="0" disallow="pedestrian tram rail_urban rail rail_electric rail_fast ship" speed="3.65" length="4.67" shape="1842.96,2523.42 1841.85,2522.51 1841.53,2521.67 1842.00,2520.92 1843.28,2520.24"/>
    </edge>
    <edge id=":309454364_0" function="internal">
        <lane id=":309454364_0_0" index="0" disallow="pedestrian tram rail_urban rail rail_electric rail_fast ship" speed="3.65" length="4.67" shape="741.87,2825.99 741.08,2827.20 740.28,2827.60 739.48,2827.20 738.67,2826.01"/>
    </edge>
    <edge id=":309454524_0" function="internal">
        <lane id=":309454524_0_0" index="0" disallow="pedestrian tram rail_urban rail rail_electric rail_fast ship" speed="7.88" length="10.76" shape="881.92,2781.56 880.70,2778.35 879.15,2776.06 877.29,2774.68 875.10,2774.22"/>
    </edge>
    <edge id=":309454524_1" function="internal">
        <lane id=":309454524_1_0" index="0" disallow="pedestrian tram rail_urban rail rail_electric rail_fast ship" speed="7.82" length="16.27" shape="881.92,2781.56 881.27,2776.96 882.37,2773.65 885.22,2771.64 889.81,2770.92"/>
    </edge>
    <edge id=":309454524_2" function="internal">
        <lane id=":309454524_2_0" index="0" disallow="pedestrian tram rail_urban rail rail_electric rail_fast ship" speed="3.65" length="4.67" shape="881.92,2781.56 882.36,2780.18 883.02,2779.58 883.90,2779.74 885.00,2780.67"/>
    </edge>
    <edge id=":309454524_3" function="internal">
        <lane id=":309454524_3_0" index="0" disallow="pedestrian tram rail_urban rail rail_electric rail_fast ship" speed="6.27" length="10.01" shape="889.85,2774.12 887.03,2774.56 885.27,2775.80 884.60,2777.83 885.00,2780.67"/>
    </edge>
    <edge id=":309454524_4" function="internal">
        <lane id=":309454524_4_0" index="0" disallow="pedestrian tram rail_urban rail rail_electric rail_fast ship" speed="13.89" length="14.75" shape="889.85,2774.12 875.10,2774.22"/>
    </edge>
    <edge id=":309454524_5" function="internal">
        <lane id=":309454524_5_0" index="0" disallow="pedestrian tram rail_urban rail rail_electric rail_fast ship" speed="3.65" length="1.44" shape="889.85,2774.12 888.64,2773.33"/>
    </edge>
    <edge id=":309454524_9" function="internal">
        <lane id=":309454524_9_0" index="0" disallow="pedestrian tram rail_urban rail rail_electric rail_fast ship" speed="3.65" length="3.23" shape="888.64,2773.33 888.23,2772.54 888.62,2771.73 889.81,2770.92"/>
    </edge>
    <edge id=":309454524_6" function="internal">
        <lane id=":309454524_6_0" index="0" disallow="pedestrian tram rail_urban rail rail_electric rail_fast ship" speed="13.89" length="14.71" shape="875.10,2771.02 889.81,2770.92"/>
    </edge>
    <edge id=":309454524_7" function="internal">
        <lane id=":309454524_7_0" index="0" disallow="pedestrian tram rail_urban rail rail_electric rail_fast ship" speed="9.18" length="3.34" shape="875.10,2771.02 878.38,2771.63"/>
    </edge>
    <edge id=":309454524_8" function="internal">
        <lane id=":309454524_8_0" index="0" disallow="pedestrian tram rail_urban rail rail_electric rail_fast ship" speed="3.65" length="1.44" shape="875.10,2771.02 876.30,2771.82"/>
    </edge>
    <edge id=":309454524_10" function="internal">
        <lane id=":309454524_10_0" index="0" disallow="pedestrian tram rail_urban rail rail_electric rail_fast ship" speed="9.18" length="11.55" shape="878.38,2771.63 881.13,2773.44 883.33,2776.45 885.00,2780.67"/>
    </edge>
    <edge id=":309454524_11" function="internal">
        <lane id=":309454524_11_0" index="0" disallow="pedestrian tram rail_urban rail rail_electric rail_fast ship" speed="3.65" length="3.23" shape="876.30,2771.82 876.70,2772.62 876.30,2773.42 875.10,2774.22"/>
    </edge>
    <edge id=":309454631_0" function="internal">
        <lane id=":309454631_0_0" index="0" disallow="pedestrian tram rail_urban rail rail_electric rail_fast ship" speed="27.78" length="16.06" shape="925.92,2935.30 921.50,2934.31 918.80,2932.11 916.10,2929.90 911.67,2928.87"/>
    </edge>
    <edge id=":309454631_1" function="internal">
        <lane id=":309454631_1_0" index="0" disallow="pedestrian tram rail_urban rail rail_electric rail_fast ship" speed="9.42" length="7.38" shape="925.91,2932.10 922.46,2931.20 919.81,2928.46"/>
    </edge>
    <edge id=":309454631_2" function="internal">
        <lane id=":309454631_2_0" index="0" disallow="pedestrian tram rail_urban rail rail_electric rail_fast ship" speed="3.65" length="1.44" shape="925.91,2928.90 924.70,2928.11"/>
    </edge>
    <edge id=":309454631_9" function="internal">
        <lane id=":309454631_9_0" index="0" disallow="pedestrian tram rail_urban rail rail_electric rail_fast ship" speed="9.42" length="11.40" shape="919.81,2928.46 917.97,2923.90 916.93,2917.50"/>
    </edge>
    <edge id=":309454631_10" function="internal">
        <lane id=":309454631_10_0" index="0" disallow="pedestrian tram rail_urban rail rail_electric rail_fast ship" speed="3.65" length="3.23" shape="924.70,2928.11 924.30,2927.31 924.70,2926.51 925.90,2925.70"/>
    </edge>
    <edge id=":309454631_3" function="internal">
        <lane id=":309454631_3_0" index="0" disallow="pedestrian tram rail_urban rail rail_electric rail_fast ship" speed="6.61" length="8.76" shape="920.12,2917.23 920.65,2919.54 921.79,2921.19 923.54,2922.18 925.89,2922.50"/>
    </edge>
    <edge id=":309454631_4" function="internal">
        <lane id=":309454631_4_0" index="0" disallow="pedestrian tram rail_urban rail rail_electric rail_fast ship" speed="8.36" length="16.70" shape="920.12,2917.23 919.97,2922.34 918.51,2925.99 915.75,2928.16 911.67,2928.87"/>
    </edge>
    <edge id=":309454631_5" function="internal">
        <lane id=":309454631_5_0" index="0" disallow="pedestrian tram rail_urban rail rail_electric rail_fast ship" speed="3.65" length="4.67" shape="920.12,2917.23 919.43,2918.49 918.66,2918.96 917.83,2918.63 916.93,2917.50"/>
    </edge>
    <edge id=":309454631_6" function="internal">
        <lane id=":309454631_6_0" index="0" disallow="pedestrian tram rail_urban rail rail_electric rail_fast ship" speed="6.95" length="11.21" shape="911.69,2925.67 914.25,2925.17 915.98,2923.65 916.87,2921.09 916.93,2917.50"/>
    </edge>
    <edge id=":309454631_7" function="internal">
        <lane id=":309454631_7_0" index="0" disallow="pedestrian tram rail_urban rail rail_electric rail_fast ship" speed="27.78" length="14.21" shape="911.69,2925.67 925.90,2925.70"/>
    </edge>
    <edge id=":309454631_8" function="internal">
        <lane id=":309454631_8_0" index="0" disallow="pedestrian tram rail_urban rail rail_electric rail_fast ship" speed="3.65" length="1.44" shape="911.69,2925.67 912.89,2926.48"/>
    </edge>
    <edge id=":309454631_11" function="internal">
        <lane id=":309454631_11_0" index="0" disallow="pedestrian tram rail_urban rail rail_electric rail_fast ship" speed="3.65" length="3.23" shape="912.89,2926.48 913.28,2927.28 912.87,2928.08 911.67,2928.87"/>
    </edge>
    <edge id=":3642908059_0" function="internal">
        <lane id=":3642908059_0_0" index="0" disallow="pedestrian tram rail_urban rail rail_electric rail_fast ship" speed="22.22" length="14.40" shape="731.15,2237.75 731.03,2223.35"/>
    </edge>
    <edge id=":3642908059_1" function="internal">
        <lane id=":3642908059_1_0" index="0" disallow="pedestrian tram rail_urban rail rail_electric rail_fast ship" speed="8.03" length="4.04" shape="731.15,2237.75 731.67,2233.92 731.76,2233.77"/>
    </edge>
    <edge id=":3642908059_2" function="internal">
        <lane id=":3642908059_2_0" index="0" disallow="pedestrian tram rail_urban rail rail_electric rail_fast ship" speed="3.65" length="1.44" shape="731.15,2237.75 731.94,2236.55"/>
    </edge>
    <edge id=":3642908059_9" function="internal">
        <lane id=":3642908059_9_0" index="0" disallow="pedestrian tram rail_urban rail rail_electric rail_fast ship" speed="8.03" length="10.17" shape="731.76,2233.77 733.30,2231.16 736.05,2229.48 739.91,2228.87"/>
    </edge>
    <edge id=":3642908059_10" function="internal">
        <lane id=":3642908059_10_0" index="0" disallow="pedestrian tram rail_urban rail rail_electric rail_fast ship" speed="3.65" length="3.23" shape="731.94,2236.55 732.73,2236.14 733.54,2236.54 734.35,2237.73"/>
    </edge>
    <edge id=":3642908059_3" function="internal">
        <lane id=":3642908059_3_0" index="0" disallow="pedestrian tram rail_urban rail rail_electric rail_fast ship" speed="6.54" length="9.08" shape="739.96,2232.07 737.49,2232.46 735.73,2233.53 734.68,2235.29 734.35,2237.73"/>
    </edge>
    <edge id=":3642908059_4" function="internal">
        <lane id=":3642908059_4_0" index="0" disallow="pedestrian tram rail_urban rail rail_electric rail_fast ship" speed="7.99" length="14.26" shape="739.96,2232.07 736.08,2231.58 733.30,2229.96 731.62,2227.22 731.03,2223.35"/>
    </edge>
    <edge id=":3642908059_5" function="internal">
        <lane id=":3642908059_5_0" index="0" disallow="pedestrian tram rail_urban rail rail_electric rail_fast ship" speed="3.65" length="4.67" shape="739.96,2232.07 738.75,2231.29 738.34,2230.49 738.72,2229.69 739.91,2228.87"/>
    </edge>
    <edge id=":3642908059_6" function="internal">
        <lane id=":3642908059_6_0" index="0" disallow="pedestrian tram rail_urban rail rail_electric rail_fast ship" speed="6.50" length="9.06" shape="734.23,2223.33 734.60,2225.79 735.67,2227.53 737.44,2228.56 739.91,2228.87"/>
    </edge>
    <edge id=":3642908059_7" function="internal">
        <lane id=":3642908059_7_0" index="0" disallow="pedestrian tram rail_urban rail rail_electric rail_fast ship" speed="22.22" length="14.40" shape="734.23,2223.33 734.35,2237.73"/>
    </edge>
    <edge id=":3642908059_8" function="internal">
        <lane id=":3642908059_8_0" index="0" disallow="pedestrian tram rail_urban rail rail_electric rail_fast ship" speed="3.65" length="1.44" shape="734.23,2223.33 733.44,2224.54"/>
    </edge>
    <edge id=":3642908059_11" function="internal">
        <lane id=":3642908059_11_0" index="0" disallow="pedestrian tram rail_urban rail rail_electric rail_fast ship" speed="3.65" length="3.23" shape="733.44,2224.54 732.65,2224.94 731.84,2224.55 731.03,2223.35"/>
    </edge>
    <edge id=":3642908061_0" function="internal">
        <lane id=":3642908061_0_0" index="0" disallow="pedestrian tram rail_urban rail rail_electric rail_fast ship" speed="3.65" length="4.67" shape="1107.90,2408.28 1109.10,2409.09 1109.49,2409.89 1109.08,2410.69 1107.88,2411.48"/>
    </edge>
    <edge id=":3694118506_0" function="internal">
        <lane id=":3694118506_0_0" index="0" disallow="pedestrian tram rail_urban rail rail_electric rail_fast ship" speed="27.78" length="0.30" shape="1402.37,2931.94 1402.07,2931.94"/>
    </edge>
    <edge id=":3694118506_1" function="internal">
        <lane id=":3694118506_1_0" index="0" disallow="pedestrian tram rail_urban rail rail_electric rail_fast ship" speed="3.65" length="2.34" shape="1402.37,2931.94 1401.18,2931.14 1400.78,2930.33"/>
    </edge>
    <edge id=":3694118506_4" function="internal">
        <lane id=":3694118506_4_0" index="0" disallow="pedestrian tram rail_urban rail rail_electric rail_fast ship" speed="3.65" length="2.34" shape="1400.78,2930.33 1401.18,2929.54 1402.39,2928.74"/>
    </edge>
    <edge id=":3694118506_2" function="internal">
        <lane id=":3694118506_2_0" index="0" disallow="pedestrian tram rail_urban rail rail_electric rail_fast ship" speed="27.78" length="0.30" shape="1402.09,2928.74 1402.39,2928.74"/>
    </edge>
    <edge id=":3694118506_3" function="internal">
        <lane id=":3694118506_3_0" index="0" disallow="pedestrian tram rail_urban rail rail_electric rail_fast ship" speed="3.65" length="2.34" shape="1402.09,2928.74 1403.28,2929.54 1403.68,2930.35"/>
    </edge>
    <edge id=":3694118506_5" function="internal">
        <lane id=":3694118506_5_0" index="0" disallow="pedestrian tram rail_urban rail rail_electric rail_fast ship" speed="3.65" length="2.34" shape="1403.68,2930.35 1403.28,2931.14 1402.07,2931.94"/>
    </edge>
    <edge id=":4685880778_0" function="internal">
        <lane id=":4685880778_0_0" index="0" disallow="pedestrian tram rail_urban rail rail_electric rail_fast ship" speed="20.12" length="8.56" shape="2329.98,1769.96 2329.43,1767.49 2328.30,1765.96 2327.19,1764.42 2326.67,1761.95"/>
        <lane id=":4685880778_0_1" index="1" disallow="pedestrian tram rail_urban rail rail_electric rail_fast ship" speed="20.12" length="8.56" shape="2333.18,1769.90 2332.63,1767.44 2331.50,1765.91 2330.39,1764.38 2329.87,1761.92"/>
        <lane id=":4685880778_0_2" index="2" disallow="pedestrian tram rail_urban rail rail_electric rail_fast ship" speed="20.12" length="8.56" shape="2333.18,1769.90 2333.07,1761.90"/>
    </edge>
    <edge id=":4685880778_3" function="internal">
        <lane id=":4685880778_3_0" index="0" disallow="pedestrian tram rail_urban rail rail_electric rail_fast ship" speed="20.12" length="7.95" shape="2339.47,1761.84 2339.57,1769.78"/>
        <lane id=":4685880778_3_1" index="1" disallow="pedestrian tram rail_urban rail rail_electric rail_fast ship" speed="20.12" length="7.95" shape="2336.27,1761.87 2336.38,1769.84"/>
    </edge>
    <edge id=":4685888670_0" function="internal">
        <lane id=":4685888670_0_0" index="0" disallow="pedestrian tram rail_urban rail rail_electric rail_fast ship" speed="27.78" length="8.01" shape="2297.37,1715.48 2289.35,1715.54"/>
    </edge>
    <edge id=":4685888670_1" function="internal">
        <lane id=":4685888670_1_0" index="0" disallow="pedestrian tram rail_urban rail rail_electric rail_fast ship" speed="27.78" length="8.53" shape="2289.32,1709.14 2291.77,1708.63 2293.30,1707.52 2294.83,1706.41 2297.28,1705.89"/>
        <lane id=":4685888670_1_1" index="1" disallow="pedestrian tram rail_urban rail rail_electric rail_fast ship" speed="27.78" length="8.53" shape="2289.34,1712.34 2291.79,1711.83 2293.32,1710.72 2294.85,1709.61 2297.31,1709.08"/>
        <lane id=":4685888670_1_2" index="2" disallow="pedestrian tram rail_urban rail rail_electric rail_fast ship" speed="27.78" length="8.53" shape="2289.34,1712.34 2297.34,1712.28"/>
    </edge>
    <edge id=":4685888671_0" function="internal">
        <lane id=":4685888671_0_0" index="0" disallow="pedestrian tram rail_urban rail rail_electric rail_fast ship" speed="27.78" length="7.99" shape="2265.21,1715.66 2257.22,1715.73"/>
    </edge>
    <edge id=":4685888671_1" function="internal">
        <lane id=":4685888671_1_0" index="0" disallow="pedestrian tram rail_urban rail rail_electric rail_fast ship" speed="27.78" length="8.41" shape="2257.19,1712.53 2259.65,1712.00 2261.18,1710.89 2262.71,1709.78 2265.17,1709.26"/>
        <lane id=":4685888671_1_1" index="1" disallow="pedestrian tram rail_urban rail rail_electric rail_fast ship" speed="27.78" length="8.41" shape="2257.19,1712.53 2265.19,1712.46"/>
    </edge>
    <edge id=":4685888672_0" function="internal">
        <lane id=":4685888672_0_0" index="0" disallow="pedestrian tram rail_urban rail rail_electric rail_fast ship" speed="27.78" length="9.22" shape="1585.73,1720.29 1583.04,1721.29 1581.73,1723.49 1580.43,1725.69 1577.74,1726.69"/>
        <lane id=":4685888672_0_1" index="1" disallow="pedestrian tram rail_urban rail rail_electric rail_fast ship" speed="27.78" length="9.22" shape="1585.73,1720.29 1583.27,1720.79 1581.73,1721.89 1580.19,1722.99 1577.73,1723.49"/>
        <lane id=":4685888672_0_2" index="2" disallow="pedestrian tram rail_urban rail rail_electric rail_fast ship" speed="27.78" length="9.22" shape="1585.73,1720.29 1577.73,1720.29"/>
    </edge>
    <edge id=":4685888672_3" function="internal">
        <lane id=":4685888672_3_0" index="0" disallow="pedestrian tram rail_urban rail rail_electric rail_fast ship" speed="27.78" length="8.00" shape="1577.73,1717.09 1585.73,1717.09"/>
    </edge>
    <edge id=":4685888682_0" function="internal">
        <lane id=":4685888682_0_0" index="0" disallow="pedestrian tram rail_urban rail rail_electric rail_fast ship" speed="27.78" length="8.00" shape="1534.30,1686.04 1534.22,1678.04"/>
        <lane id=":4685888682_0_1" index="1" disallow="pedestrian tram rail_urban rail rail_electric rail_fast ship" speed="27.78" length="8.00" shape="1537.50,1686.01 1537.42,1678.01"/>
    </edge>
    <edge id=":4685888682_2" function="internal">
        <lane id=":4685888682_2_0" index="0" disallow="pedestrian tram rail_urban rail rail_electric rail_fast ship" speed="27.78" length="8.54" shape="1543.82,1677.94 1544.34,1680.40 1545.46,1681.93 1546.57,1683.45 1547.10,1685.91"/>
        <lane id=":4685888682_2_1" index="1" disallow="pedestrian tram rail_urban rail rail_electric rail_fast ship" speed="27.78" length="8.54" shape="1540.62,1677.97 1541.14,1680.43 1542.26,1681.96 1543.37,1683.49 1543.90,1685.94"/>
        <lane id=":4685888682_2_2" index="2" disallow="pedestrian tram rail_urban rail rail_electric rail_fast ship" speed="27.78" length="8.54" shape="1540.62,1677.97 1540.70,1685.97"/>
    </edge>
    <edge id=":4685888684_0" function="internal">
        <lane id=":4685888684_0_0" index="0" disallow="pedestrian tram rail_urban rail rail_electric rail_fast ship" speed="27.78" length="9.63" shape="1534.86,1783.22 1533.85,1780.54 1531.65,1779.24 1529.44,1777.94 1528.43,1775.25"/>
        <lane id=":4685888684_0_1" index="1" disallow="pedestrian tram rail_urban rail rail_electric rail_fast ship" speed="27.78" length="9.63" shape="1538.06,1783.22 1537.05,1780.53 1534.85,1779.23 1532.64,1777.93 1531.63,1775.24"/>
        <lane id=":4685888684_0_2" index="2" disallow="pedestrian tram rail_urban rail rail_electric rail_fast ship" speed="27.78" length="9.63" shape="1538.06,1783.22 1537.55,1780.76 1536.45,1779.22 1535.34,1777.69 1534.83,1775.23"/>
        <lane id=":4685888684_0_3" index="3" disallow="pedestrian tram rail_urban rail rail_electric rail_fast ship" speed="27.78" length="9.63" shape="1538.06,1783.22 1538.03,1775.22"/>
    </edge>
    <edge id=":4685888684_4" function="internal">
        <lane id=":4685888684_4_0" index="0" disallow="pedestrian tram rail_urban rail rail_electric rail_fast ship" speed="27.78" length="8.01" shape="1544.43,1775.19 1544.46,1783.20"/>
        <lane id=":4685888684_4_1" index="1" disallow="pedestrian tram rail_urban rail rail_electric rail_fast ship" speed="27.78" length="8.01" shape="1541.23,1775.20 1541.26,1783.21"/>
    </edge>
    <edge id=":4685892088_0" function="internal">
        <lane id=":4685892088_0_0" index="0" disallow="pedestrian tram rail_urban rail rail_electric rail_fast ship" speed="27.78" length="8.54" shape="1981.65,1312.04 1979.19,1312.54 1977.65,1313.65 1976.12,1314.75 1973.66,1315.26"/>
        <lane id=":4685892088_0_1" index="1" disallow="pedestrian tram rail_urban rail rail_electric rail_fast ship" speed="27.78" length="8.54" shape="1981.64,1308.84 1979.18,1309.34 1977.64,1310.45 1976.11,1311.55 1973.65,1312.06"/>
        <lane id=":4685892088_0_2" index="2" disallow="pedestrian tram rail_urban rail rail_electric rail_fast ship" speed="27.78" length="8.54" shape="1981.64,1308.84 1973.64,1308.86"/>
    </edge>
    <edge id=":4685892088_3" function="internal">
        <lane id=":4685892088_3_0" index="0" disallow="pedestrian tram rail_urban rail rail_electric rail_fast ship" speed="27.78" length="8.00" shape="1973.61,1302.46 1981.61,1302.44"/>
        <lane id=":4685892088_3_1" index="1" disallow="pedestrian tram rail_urban rail rail_electric rail_fast ship" speed="27.78" length="8.00" shape="1973.62,1305.66 1981.62,1305.64"/>
    </edge>
    <edge id=":4685892089_0" function="internal">
        <lane id=":4685892089_0_0" index="0" disallow="pedestrian tram rail_urban rail rail_electric rail_fast ship" speed="27.78" length="8.00" shape="1895.36,1312.27 1887.35,1312.28"/>
        <lane id=":4685892089_0_1" index="1" disallow="pedestrian tram rail_urban rail rail_electric rail_fast ship" speed="27.78" length="8.00" shape="1895.35,1309.07 1887.35,1309.08"/>
    </edge>
    <edge id=":4685892089_2" function="internal">
        <lane id=":4685892089_2_0" index="0" disallow="pedestrian tram rail_urban rail rail_electric rail_fast ship" speed="27.78" length="9.63" shape="1887.34,1302.68 1890.03,1301.68 1891.34,1299.48 1892.64,1297.28 1895.33,1296.27"/>
        <lane id=":4685892089_2_1" index="1" disallow="pedestrian tram rail_urban rail rail_electric rail_fast ship" speed="27.78" length="9.63" shape="1887.35,1305.88 1890.04,1304.88 1891.34,1302.68 1892.65,1300.48 1895.33,1299.47"/>
        <lane id=":4685892089_2_2" index="2" disallow="pedestrian tram rail_urban rail rail_electric rail_fast ship" speed="27.78" length="9.63" shape="1887.35,1305.88 1889.81,1305.38 1891.34,1304.28 1892.88,1303.18 1895.34,1302.67"/>
        <lane id=":4685892089_2_3" index="3" disallow="pedestrian tram rail_urban rail rail_electric rail_fast ship" speed="27.78" length="9.63" shape="1887.35,1305.88 1895.35,1305.87"/>
    </edge>
    <edge id=":4687459795_0" function="internal">
        <lane id=":4687459795_0_0" index="0" disallow="pedestrian tram rail_urban rail rail_electric rail_fast ship" speed="27.78" length="7.11" shape="774.42,2933.42 772.32,2933.25 770.88,2933.01 769.45,2932.83 767.35,2932.85"/>
        <lane id=":4687459795_0_1" index="1" disallow="pedestrian tram rail_urban rail rail_electric rail_fast ship" speed="27.78" length="8.48" shape="774.42,2933.42 772.14,2932.74 770.79,2931.40 769.44,2930.12 767.16,2929.65"/>
        <lane id=":4687459795_0_2" index="2" disallow="pedestrian tram rail_urban rail rail_electric rail_fast ship" speed="27.78" length="10.95" shape="774.42,2933.42 771.82,2932.22 770.69,2929.77 769.56,2927.40 766.97,2926.46"/>
    </edge>
    <edge id=":4687459795_3" function="internal">
        <lane id=":4687459795_3_0" index="0" disallow="pedestrian tram rail_urban rail rail_electric rail_fast ship" speed="5.71" length="14.75" shape="774.42,2933.42 771.51,2918.95"/>
    </edge>
    <edge id=":4687459795_4" function="internal">
        <lane id=":4687459795_4_0" index="0" disallow="pedestrian tram rail_urban rail rail_electric rail_fast ship" speed="27.78" length="5.09" shape="766.59,2920.07 768.06,2919.82 769.05,2919.43 770.03,2919.08 771.51,2918.95"/>
    </edge>
    <edge id=":4687459795_5" function="internal">
        <lane id=":4687459795_5_0" index="0" disallow="pedestrian tram rail_urban rail rail_electric rail_fast ship" speed="3.65" length="4.67" shape="766.78,2923.26 768.02,2923.99 768.47,2924.76 768.12,2925.59 766.97,2926.46"/>
    </edge>
    <edge id=":4687467830_0" function="internal">
        <lane id=":4687467830_0_0" index="0" disallow="pedestrian tram rail_urban rail rail_electric rail_fast ship" speed="27.78" length="9.19" shape="793.66,2121.13 790.98,2122.10 789.67,2124.29 788.37,2126.49 785.68,2127.50"/>
        <lane id=":4687467830_0_1" index="1" disallow="pedestrian tram rail_urban rail rail_electric rail_fast ship" speed="27.78" length="9.19" shape="793.66,2121.13 791.21,2121.61 789.67,2122.69 788.13,2123.79 785.68,2124.30"/>
        <lane id=":4687467830_0_2" index="2" disallow="pedestrian tram rail_urban rail rail_electric rail_fast ship" speed="27.78" length="9.19" shape="793.66,2121.13 785.68,2121.10"/>
    </edge>
    <edge id=":4687467830_3" function="internal">
        <lane id=":4687467830_3_0" index="0" disallow="pedestrian tram rail_urban rail rail_electric rail_fast ship" speed="27.78" length="8.84" shape="785.67,2114.70 788.14,2115.19 789.68,2116.29 791.22,2117.41 793.69,2117.93"/>
    </edge>