<?xml version="1.0" encoding="UTF-8"?>

<!-- generated on 2022-06-02 11:40:02 by Eclipse SUMO netedit Version 1.12.0
<configuration xmlns:xsi="http://www.w3.org/2001/XMLSchema-instance" xsi:noNamespaceSchemaLocation="http://sumo.dlr.de/xsd/netconvertConfiguration.xsd">

    <input>
        <sumo-net-file value="C:\Users\xuanp\OneDrive%20-%20email.ucr.edu\Study\Cecert\CARTEEH\SUMO\sumo-main\CARTEEH\netrouGenerator\urban_bottomright.net.xml"/>
    </input>

    <output>
        <output-file value="C:\Users\xuanp\OneDrive%20-%20email.ucr.edu\Study\Cecert\CARTEEH\SUMO\sumo-main\CARTEEH\netrouGenerator\urban_bottomright.net.xml"/>
        <output.street-names value="true"/>
    </output>

    <processing>
        <geometry.min-radius.fix.railways value="false"/>
        <geometry.max-grade.fix value="false"/>
        <offset.disable-normalization value="true"/>
        <lefthand value="false"/>
    </processing>

    <junctions>
        <no-turnarounds value="true"/>
        <junctions.corner-detail value="5"/>
        <junctions.limit-turn-speed value="5.5"/>
        <rectangular-lane-cut value="false"/>
    </junctions>

    <pedestrian>
        <walkingareas value="false"/>
    </pedestrian>

    <report>
        <aggregate-warnings value="5"/>
    </report>

</configuration>
-->

<net version="1.9" junctionCornerDetail="5" limitTurnSpeed="5.50" xmlns:xsi="http://www.w3.org/2001/XMLSchema-instance" xsi:noNamespaceSchemaLocation="http://sumo.dlr.de/xsd/net_file.xsd">

    <location netOffset="-466270.71,-3758205.14" convBoundary="1530.94,1296.04,2341.30,2122.70" origBoundary="-117.365162,33.963862,-117.332883,34.012538" projParameter="+proj=utm +zone=11 +ellps=WGS84 +datum=WGS84 +units=m +no_defs"/>

    <type id="highway.bridleway" priority="1" numLanes="1" speed="2.78" allow="pedestrian" oneway="1" width="2.00"/>
    <type id="highway.bus_guideway" priority="1" numLanes="1" speed="27.78" allow="bus" oneway="1"/>
    <type id="highway.cycleway" priority="1" numLanes="1" speed="8.33" allow="bicycle" oneway="0" width="1.00"/>
    <type id="highway.footway" priority="1" numLanes="1" speed="2.78" allow="pedestrian" oneway="1" width="2.00"/>
    <type id="highway.ford" priority="1" numLanes="1" speed="2.78" allow="army" oneway="0"/>
    <type id="highway.living_street" priority="2" numLanes="1" speed="2.78" disallow="tram rail_urban rail rail_electric rail_fast ship" oneway="0"/>
    <type id="highway.motorway" priority="14" numLanes="2" speed="39.44" allow="private emergency authority army vip passenger hov taxi bus coach delivery truck trailer motorcycle evehicle custom1 custom2" oneway="1"/>
    <type id="highway.motorway_link" priority="9" numLanes="1" speed="22.22" allow="private emergency authority army vip passenger hov taxi bus coach delivery truck trailer motorcycle evehicle custom1 custom2" oneway="1"/>
    <type id="highway.path" priority="1" numLanes="1" speed="2.78" allow="pedestrian bicycle" oneway="0" width="2.00"/>
    <type id="highway.pedestrian" priority="1" numLanes="1" speed="2.78" allow="pedestrian" oneway="1" width="2.00"/>
    <type id="highway.primary" priority="12" numLanes="2" speed="27.78" disallow="tram rail_urban rail rail_electric rail_fast ship" oneway="0"/>
    <type id="highway.primary_link" priority="7" numLanes="1" speed="22.22" disallow="tram rail_urban rail rail_electric rail_fast ship" oneway="0"/>
    <type id="highway.raceway" priority="15" numLanes="2" speed="83.33" allow="vip" oneway="0"/>
    <type id="highway.residential" priority="3" numLanes="1" speed="13.89" disallow="tram rail_urban rail rail_electric rail_fast ship" oneway="0"/>
    <type id="highway.secondary" priority="11" numLanes="1" speed="27.78" disallow="tram rail_urban rail rail_electric rail_fast ship" oneway="0"/>
    <type id="highway.secondary_link" priority="6" numLanes="1" speed="22.22" disallow="tram rail_urban rail rail_electric rail_fast ship" oneway="0"/>
    <type id="highway.service" priority="1" numLanes="1" speed="5.56" allow="pedestrian delivery bicycle" oneway="0"/>
    <type id="highway.stairs" priority="1" numLanes="1" speed="1.39" allow="pedestrian" oneway="1" width="2.00"/>
    <type id="highway.step" priority="1" numLanes="1" speed="1.39" allow="pedestrian" oneway="1" width="2.00"/>
    <type id="highway.steps" priority="1" numLanes="1" speed="1.39" allow="pedestrian" oneway="1" width="2.00"/>
    <type id="highway.tertiary" priority="10" numLanes="1" speed="22.22" disallow="tram rail_urban rail rail_electric rail_fast ship" oneway="0"/>
    <type id="highway.tertiary_link" priority="5" numLanes="1" speed="22.22" disallow="tram rail_urban rail rail_electric rail_fast ship" oneway="0"/>
    <type id="highway.track" priority="1" numLanes="1" speed="5.56" allow="pedestrian motorcycle moped bicycle" oneway="0"/>
    <type id="highway.trunk" priority="13" numLanes="2" speed="27.78" disallow="pedestrian bicycle tram rail_urban rail rail_electric rail_fast ship" oneway="0"/>
    <type id="highway.trunk_link" priority="8" numLanes="1" speed="22.22" disallow="pedestrian bicycle tram rail_urban rail rail_electric rail_fast ship" oneway="0"/>
    <type id="highway.unclassified" priority="4" numLanes="1" speed="13.89" disallow="tram rail_urban rail rail_electric rail_fast ship" oneway="0"/>
    <type id="highway.unsurfaced" priority="1" numLanes="1" speed="8.33" disallow="tram rail_urban rail rail_electric rail_fast ship" oneway="0"/>
    <type id="railway.highspeed" priority="21" numLanes="1" speed="69.44" allow="rail_fast" oneway="1"/>
    <type id="railway.light_rail" priority="19" numLanes="1" speed="27.78" allow="rail_urban" oneway="1"/>
    <type id="railway.preserved" priority="16" numLanes="1" speed="27.78" allow="rail" oneway="1"/>
    <type id="railway.rail" priority="20" numLanes="1" speed="44.44" allow="rail" oneway="1"/>
    <type id="railway.subway" priority="18" numLanes="1" speed="27.78" allow="rail_urban" oneway="1"/>
    <type id="railway.tram" priority="17" numLanes="1" speed="13.89" allow="tram" oneway="1"/>

    <edge id=":4685880778_0" function="internal">
        <lane id=":4685880778_0_0" index="0" disallow="pedestrian tram rail_urban rail rail_electric rail_fast ship" speed="20.12" length="8.56" shape="2329.98,1769.96 2329.43,1767.49 2328.30,1765.96 2327.19,1764.42 2326.67,1761.95"/>
        <lane id=":4685880778_0_1" index="1" disallow="pedestrian tram rail_urban rail rail_electric rail_fast ship" speed="20.12" length="8.56" shape="2333.18,1769.90 2332.63,1767.44 2331.50,1765.91 2330.39,1764.38 2329.87,1761.92"/>
        <lane id=":4685880778_0_2" index="2" disallow="pedestrian tram rail_urban rail rail_electric rail_fast ship" speed="20.12" length="8.56" shape="2333.18,1769.90 2333.07,1761.90"/>
    </edge>
    <edge id=":4685880778_3" function="internal">
        <lane id=":4685880778_3_0" index="0" disallow="pedestrian tram rail_urban rail rail_electric rail_fast ship" speed="20.12" length="7.95" shape="2339.47,1761.84 2339.57,1769.78"/>
        <lane id=":4685880778_3_1" index="1" disallow="pedestrian tram rail_urban rail rail_electric rail_fast ship" speed="20.12" length="7.95" shape="2336.27,1761.87 2336.38,1769.84"/>
    </edge>
    <edge id=":4685888670_0" function="internal">
        <lane id=":4685888670_0_0" index="0" disallow="pedestrian tram rail_urban rail rail_electric rail_fast ship" speed="27.78" length="8.01" shape="2297.37,1715.48 2289.35,1715.54"/>
    </edge>
    <edge id=":4685888670_1" function="internal">
        <lane id=":4685888670_1_0" index="0" disallow="pedestrian tram rail_urban rail rail_electric rail_fast ship" speed="27.78" length="8.53" shape="2289.32,1709.14 2291.77,1708.63 2293.30,1707.52 2294.83,1706.41 2297.28,1705.89"/>
        <lane id=":4685888670_1_1" index="1" disallow="pedestrian tram rail_urban rail rail_electric rail_fast ship" speed="27.78" length="8.53" shape="2289.34,1712.34 2291.79,1711.83 2293.32,1710.72 2294.85,1709.61 2297.31,1709.08"/>
        <lane id=":4685888670_1_2" index="2" disallow="pedestrian tram rail_urban rail rail_electric rail_fast ship" speed="27.78" length="8.53" shape="2289.34,1712.34 2297.34,1712.28"/>
    </edge>
    <edge id=":4685888671_0" function="internal">
        <lane id=":4685888671_0_0" index="0" disallow="pedestrian tram rail_urban rail rail_electric rail_fast ship" speed="27.78" length="7.99" shape="2265.21,1715.66 2257.22,1715.73"/>
    </edge>
    <edge id=":4685888671_1" function="internal">
        <lane id=":4685888671_1_0" index="0" disallow="pedestrian tram rail_urban rail rail_electric rail_fast ship" speed="27.78" length="8.41" shape="2257.19,1712.53 2259.65,1712.00 2261.18,1710.89 2262.71,1709.78 2265.17,1709.26"/>
        <lane id=":4685888671_1_1" index="1" disallow="pedestrian tram rail_urban rail rail_electric rail_fast ship" speed="27.78" length="8.41" shape="2257.19,1712.53 2265.19,1712.46"/>
    </edge>
    <edge id=":4685888672_0" function="internal">
        <lane id=":4685888672_0_0" index="0" disallow="pedestrian tram rail_urban rail rail_electric rail_fast ship" speed="27.78" length="9.22" shape="1585.73,1720.29 1583.04,1721.29 1581.73,1723.49 1580.43,1725.69 1577.74,1726.69"/>
        <lane id=":4685888672_0_1" index="1" disallow="pedestrian tram rail_urban rail rail_electric rail_fast ship" speed="27.78" length="9.22" shape="1585.73,1720.29 1583.27,1720.79 1581.73,1721.89 1580.19,1722.99 1577.73,1723.49"/>
        <lane id=":4685888672_0_2" index="2" disallow="pedestrian tram rail_urban rail rail_electric rail_fast ship" speed="27.78" length="9.22" shape="1585.73,1720.29 1577.73,1720.29"/>
    </edge>
    <edge id=":4685888672_3" function="internal">
        <lane id=":4685888672_3_0" index="0" disallow="pedestrian tram rail_urban rail rail_electric rail_fast ship" speed="27.78" length="8.00" shape="1577.73,1717.09 1585.73,1717.09"/>
    </edge>
    <edge id=":4685888682_0" function="internal">
        <lane id=":4685888682_0_0" index="0" disallow="pedestrian tram rail_urban rail rail_electric rail_fast ship" speed="27.78" length="8.00" shape="1534.30,1686.04 1534.22,1678.04"/>
        <lane id=":4685888682_0_1" index="1" disallow="pedestrian tram rail_urban rail rail_electric rail_fast ship" speed="27.78" length="8.00" shape="1537.50,1686.01 1537.42,1678.01"/>
    </edge>
    <edge id=":4685888682_2" function="internal">
        <lane id=":4685888682_2_0" index="0" disallow="pedestrian tram rail_urban rail rail_electric rail_fast ship" speed="27.78" length="8.54" shape="1543.82,1677.94 1544.34,1680.40 1545.46,1681.93 1546.57,1683.45 1547.10,1685.91"/>
        <lane id=":4685888682_2_1" index="1" disallow="pedestrian tram rail_urban rail rail_electric rail_fast ship" speed="27.78" length="8.54" shape="1540.62,1677.97 1541.14,1680.43 1542.26,1681.96 1543.37,1683.49 1543.90,1685.94"/>
        <lane id=":4685888682_2_2" index="2" disallow="pedestrian tram rail_urban rail rail_electric rail_fast ship" speed="27.78" length="8.54" shape="1540.62,1677.97 1540.70,1685.97"/>
    </edge>
    <edge id=":4685888684_0" function="internal">
        <lane id=":4685888684_0_0" index="0" disallow="pedestrian tram rail_urban rail rail_electric rail_fast ship" speed="27.78" length="9.63" shape="1534.86,1783.22 1533.85,1780.54 1531.65,1779.24 1529.44,1777.94 1528.43,1775.25"/>
        <lane id=":4685888684_0_1" index="1" disallow="pedestrian tram rail_urban rail rail_electric rail_fast ship" speed="27.78" length="9.63" shape="1538.06,1783.22 1537.05,1780.53 1534.85,1779.23 1532.64,1777.93 1531.63,1775.24"/>
        <lane id=":4685888684_0_2" index="2" disallow="pedestrian tram rail_urban rail rail_electric rail_fast ship" speed="27.78" length="9.63" shape="1538.06,1783.22 1537.55,1780.76 1536.45,1779.22 1535.34,1777.69 1534.83,1775.23"/>
        <lane id=":4685888684_0_3" index="3" disallow="pedestrian tram rail_urban rail rail_electric rail_fast ship" speed="27.78" length="9.63" shape="1538.06,1783.22 1538.03,1775.22"/>
    </edge>
    <edge id=":4685888684_4" function="internal">
        <lane id=":4685888684_4_0" index="0" disallow="pedestrian tram rail_urban rail rail_electric rail_fast ship" speed="27.78" length="8.01" shape="1544.43,1775.19 1544.46,1783.20"/>
        <lane id=":4685888684_4_1" index="1" disallow="pedestrian tram rail_urban rail rail_electric rail_fast ship" speed="27.78" length="8.01" shape="1541.23,1775.20 1541.26,1783.21"/>
    </edge>
    <edge id=":4685892088_0" function="internal">
        <lane id=":4685892088_0_0" index="0" disallow="pedestrian tram rail_urban rail rail_electric rail_fast ship" speed="27.78" length="8.54" shape="1981.65,1312.04 1979.19,1312.54 1977.65,1313.65 1976.12,1314.75 1973.66,1315.26"/>
        <lane id=":4685892088_0_1" index="1" disallow="pedestrian tram rail_urban rail rail_electric rail_fast ship" speed="27.78" length="8.54" shape="1981.64,1308.84 1979.18,1309.34 1977.64,1310.45 1976.11,1311.55 1973.65,1312.06"/>
        <lane id=":4685892088_0_2" index="2" disallow="pedestrian tram rail_urban rail rail_electric rail_fast ship" speed="27.78" length="8.54" shape="1981.64,1308.84 1973.64,1308.86"/>
    </edge>
    <edge id=":4685892088_3" function="internal">
        <lane id=":4685892088_3_0" index="0" disallow="pedestrian tram rail_urban rail rail_electric rail_fast ship" speed="27.78" length="8.00" shape="1973.61,1302.46 1981.61,1302.44"/>
        <lane id=":4685892088_3_1" index="1" disallow="pedestrian tram rail_urban rail rail_electric rail_fast ship" speed="27.78" length="8.00" shape="1973.62,1305.66 1981.62,1305.64"/>
    </edge>
    <edge id=":4685892089_0" function="internal">
        <lane id=":4685892089_0_0" index="0" disallow="pedestrian tram rail_urban rail rail_electric rail_fast ship" speed="27.78" length="8.00" shape="1895.36,1312.27 1887.35,1312.28"/>
        <lane id=":4685892089_0_1" index="1" disallow="pedestrian tram rail_urban rail rail_electric rail_fast ship" speed="27.78" length="8.00" shape="1895.35,1309.07 1887.35,1309.08"/>
    </edge>
    <edge id=":4685892089_2" function="internal">
        <lane id=":4685892089_2_0" index="0" disallow="pedestrian tram rail_urban rail rail_electric rail_fast ship" speed="27.78" length="9.63" shape="1887.34,1302.68 1890.03,1301.68 1891.34,1299.48 1892.64,1297.28 1895.33,1296.27"/>
        <lane id=":4685892089_2_1" index="1" disallow="pedestrian tram rail_urban rail rail_electric rail_fast ship" speed="27.78" length="9.63" shape="1887.35,1305.88 1890.04,1304.88 1891.34,1302.68 1892.65,1300.48 1895.33,1299.47"/>
        <lane id=":4685892089_2_2" index="2" disallow="pedestrian tram rail_urban rail rail_electric rail_fast ship" speed="27.78" length="9.63" shape="1887.35,1305.88 1889.81,1305.38 1891.34,1304.28 1892.88,1303.18 1895.34,1302.67"/>
        <lane id=":4685892089_2_3" index="3" disallow="pedestrian tram rail_urban rail rail_electric rail_fast ship" speed="27.78" length="9.63" shape="1887.35,1305.88 1895.35,1305.87"/>
    </edge>
    <edge id=":4687597471_0" function="internal">
        <lane id=":4687597471_0_0" index="0" disallow="pedestrian tram rail_urban rail rail_electric rail_fast ship" speed="27.78" length="8.05" shape="1537.48,2079.95 1537.43,2071.88"/>
        <lane id=":4687597471_0_1" index="1" disallow="pedestrian tram rail_urban rail rail_electric rail_fast ship" speed="27.78" length="8.05" shape="1540.67,2079.91 1540.63,2071.88"/>
    </edge>
    <edge id=":4687597471_2" function="internal">
        <lane id=":4687597471_2_0" index="0" disallow="pedestrian tram rail_urban rail rail_electric rail_fast ship" speed="27.78" length="8.49" shape="1547.03,2071.89 1547.52,2074.32 1548.63,2075.83 1549.74,2077.34 1550.27,2079.77"/>
        <lane id=":4687597471_2_1" index="1" disallow="pedestrian tram rail_urban rail rail_electric rail_fast ship" speed="27.78" length="8.49" shape="1543.83,2071.89 1544.32,2074.33 1545.43,2075.85 1546.54,2077.37 1547.07,2079.82"/>
        <lane id=":4687597471_2_2" index="2" disallow="pedestrian tram rail_urban rail rail_electric rail_fast ship" speed="27.78" length="8.49" shape="1543.83,2071.89 1543.87,2079.86"/>
    </edge>
    <edge id=":4687605173_0" function="internal">
        <lane id=":4687605173_0_0" index="0" disallow="pedestrian tram rail_urban rail rail_electric rail_fast ship" speed="20.12" length="7.98" shape="2331.81,2074.38 2331.78,2066.41"/>
        <lane id=":4687605173_0_1" index="1" disallow="pedestrian tram rail_urban rail rail_electric rail_fast ship" speed="20.12" length="7.98" shape="2335.01,2074.38 2334.98,2066.39"/>
    </edge>
    <edge id=":4687605173_2" function="internal">
        <lane id=":4687605173_2_0" index="0" disallow="pedestrian tram rail_urban rail rail_electric rail_fast ship" speed="20.12" length="8.55" shape="2341.38,2066.36 2341.89,2068.83 2343.00,2070.37 2344.10,2071.91 2344.61,2074.38"/>
        <lane id=":4687605173_2_1" index="1" disallow="pedestrian tram rail_urban rail rail_electric rail_fast ship" speed="20.12" length="8.55" shape="2338.18,2066.38 2338.69,2068.84 2339.80,2070.38 2340.90,2071.92 2341.41,2074.38"/>
        <lane id=":4687605173_2_2" index="2" disallow="pedestrian tram rail_urban rail rail_electric rail_fast ship" speed="20.12" length="8.55" shape="2338.18,2066.38 2338.21,2074.38"/>
    </edge>
    <edge id=":4687614102_0" function="internal">
        <lane id=":4687614102_0_0" index="0" disallow="pedestrian tram rail_urban rail rail_electric rail_fast ship" speed="27.78" length="7.95" shape="2292.17,2122.56 2284.23,2122.63"/>
        <lane id=":4687614102_0_1" index="1" disallow="pedestrian tram rail_urban rail rail_electric rail_fast ship" speed="27.78" length="7.95" shape="2292.15,2119.36 2284.19,2119.43"/>
    </edge>
    <edge id=":4687614102_2" function="internal">
        <lane id=":4687614102_2_0" index="0" disallow="pedestrian tram rail_urban rail rail_electric rail_fast ship" speed="27.78" length="9.89" shape="2284.07,2109.83 2286.76,2108.80 2288.06,2106.58 2289.37,2104.37 2292.06,2103.36"/>
        <lane id=":4687614102_2_1" index="1" disallow="pedestrian tram rail_urban rail rail_electric rail_fast ship" speed="27.78" length="9.89" shape="2284.11,2113.03 2286.80,2112.00 2288.09,2109.78 2289.39,2107.57 2292.08,2106.56"/>
        <lane id=":4687614102_2_2" index="2" disallow="pedestrian tram rail_urban rail rail_electric rail_fast ship" speed="27.78" length="9.89" shape="2284.15,2116.23 2286.83,2115.20 2288.12,2112.98 2289.41,2110.77 2292.10,2109.76"/>
        <lane id=":4687614102_2_3" index="3" disallow="pedestrian tram rail_urban rail rail_electric rail_fast ship" speed="27.78" length="9.89" shape="2284.15,2116.23 2286.60,2115.70 2288.13,2114.58 2289.66,2113.47 2292.12,2112.96"/>
        <lane id=":4687614102_2_4" index="4" disallow="pedestrian tram rail_urban rail rail_electric rail_fast ship" speed="27.78" length="9.89" shape="2284.15,2116.23 2292.13,2116.16"/>
    </edge>
    <edge id=":4687614104_0" function="internal">
        <lane id=":4687614104_0_0" index="0" disallow="pedestrian tram rail_urban rail rail_electric rail_fast ship" speed="27.78" length="8.00" shape="2220.11,2123.39 2212.11,2123.47"/>
        <lane id=":4687614104_0_1" index="1" disallow="pedestrian tram rail_urban rail rail_electric rail_fast ship" speed="27.78" length="8.00" shape="2220.08,2120.19 2212.08,2120.27"/>
    </edge>
    <edge id=":4687614104_2" function="internal">
        <lane id=":4687614104_2_0" index="0" disallow="pedestrian tram rail_urban rail rail_electric rail_fast ship" speed="27.78" length="8.54" shape="2212.01,2113.87 2214.47,2113.35 2215.99,2112.23 2217.52,2111.11 2219.97,2110.59"/>
        <lane id=":4687614104_2_1" index="1" disallow="pedestrian tram rail_urban rail rail_electric rail_fast ship" speed="27.78" length="8.54" shape="2212.04,2117.07 2214.50,2116.55 2216.03,2115.43 2217.55,2114.31 2220.01,2113.79"/>
        <lane id=":4687614104_2_2" index="2" disallow="pedestrian tram rail_urban rail rail_electric rail_fast ship" speed="27.78" length="8.54" shape="2212.04,2117.07 2220.04,2116.99"/>
    </edge>
    <edge id=":4687614105_0" function="internal">
        <lane id=":4687614105_0_0" index="0" disallow="pedestrian tram rail_urban rail rail_electric rail_fast ship" speed="27.78" length="8.81" shape="2078.95,2131.20 2076.48,2130.71 2074.94,2129.61 2073.40,2128.51 2070.94,2128.02"/>
        <lane id=":4687614105_0_1" index="1" disallow="pedestrian tram rail_urban rail rail_electric rail_fast ship" speed="27.78" length="8.81" shape="2078.94,2128.00 2076.47,2127.51 2074.93,2126.41 2073.39,2125.31 2070.93,2124.82"/>
        <lane id=":4687614105_0_2" index="2" disallow="pedestrian tram rail_urban rail rail_electric rail_fast ship" speed="27.78" length="8.81" shape="2078.92,2124.80 2076.46,2124.31 2074.92,2123.21 2073.38,2122.12 2070.92,2121.62"/>
    </edge>
    <edge id=":4687614105_3" function="internal">
        <lane id=":4687614105_3_0" index="0" disallow="pedestrian tram rail_urban rail rail_electric rail_fast ship" speed="27.78" length="8.00" shape="2070.88,2112.02 2078.88,2112.00"/>
        <lane id=":4687614105_3_1" index="1" disallow="pedestrian tram rail_urban rail rail_electric rail_fast ship" speed="27.78" length="8.00" shape="2070.89,2115.22 2078.89,2115.20"/>
        <lane id=":4687614105_3_2" index="2" disallow="pedestrian tram rail_urban rail rail_electric rail_fast ship" speed="27.78" length="8.00" shape="2070.90,2118.42 2078.90,2118.40"/>
    </edge>
    <edge id=":4687614106_0" function="internal">
        <lane id=":4687614106_0_0" index="0" disallow="pedestrian tram rail_urban rail rail_electric rail_fast ship" speed="27.78" length="8.00" shape="2039.88,2131.32 2031.89,2131.34"/>
        <lane id=":4687614106_0_1" index="1" disallow="pedestrian tram rail_urban rail rail_electric rail_fast ship" speed="27.78" length="8.00" shape="2039.87,2128.12 2031.88,2128.14"/>
        <lane id=":4687614106_0_2" index="2" disallow="pedestrian tram rail_urban rail rail_electric rail_fast ship" speed="27.78" length="8.00" shape="2039.86,2124.92 2031.87,2124.94"/>
        <lane id=":4687614106_0_3" index="3" disallow="pedestrian tram rail_urban rail rail_electric rail_fast ship" speed="27.78" length="8.00" shape="2039.86,2121.72 2031.86,2121.74"/>
    </edge>
    <edge id=":4687614106_4" function="internal">
        <lane id=":4687614106_4_0" index="0" disallow="pedestrian tram rail_urban rail rail_electric rail_fast ship" speed="27.78" length="8.54" shape="2031.83,2115.34 2034.29,2114.84 2035.83,2113.73 2037.37,2112.63 2039.83,2112.12"/>
        <lane id=":4687614106_4_1" index="1" disallow="pedestrian tram rail_urban rail rail_electric rail_fast ship" speed="27.78" length="8.54" shape="2031.84,2118.54 2034.31,2118.04 2035.84,2116.93 2037.38,2115.83 2039.84,2115.32"/>
        <lane id=":4687614106_4_2" index="2" disallow="pedestrian tram rail_urban rail rail_electric rail_fast ship" speed="27.78" length="8.54" shape="2031.84,2118.54 2039.85,2118.52"/>
    </edge>
    <edge id=":4687614107_0" function="internal">
        <lane id=":4687614107_0_0" index="0" disallow="pedestrian tram rail_urban rail rail_electric rail_fast ship" speed="27.78" length="8.61" shape="2060.56,2128.06 2058.09,2128.56 2056.56,2129.67 2055.02,2130.77 2052.56,2131.28"/>
        <lane id=":4687614107_0_1" index="1" disallow="pedestrian tram rail_urban rail rail_electric rail_fast ship" speed="27.78" length="8.61" shape="2060.55,2124.86 2058.08,2125.36 2056.55,2126.47 2055.01,2127.57 2052.55,2128.08"/>
        <lane id=":4687614107_0_2" index="2" disallow="pedestrian tram rail_urban rail rail_electric rail_fast ship" speed="27.78" length="8.61" shape="2060.53,2121.66 2058.07,2122.16 2056.54,2123.27 2055.00,2124.37 2052.54,2124.88"/>
        <lane id=":4687614107_0_3" index="3" disallow="pedestrian tram rail_urban rail rail_electric rail_fast ship" speed="27.78" length="8.61" shape="2060.53,2121.66 2052.53,2121.68"/>
    </edge>
    <edge id=":4687614107_4" function="internal">
        <lane id=":4687614107_4_0" index="0" disallow="pedestrian tram rail_urban rail rail_electric rail_fast ship" speed="27.78" length="8.00" shape="2052.51,2112.08 2060.50,2112.06"/>
        <lane id=":4687614107_4_1" index="1" disallow="pedestrian tram rail_urban rail rail_electric rail_fast ship" speed="27.78" length="8.00" shape="2052.52,2115.28 2060.51,2115.26"/>
        <lane id=":4687614107_4_2" index="2" disallow="pedestrian tram rail_urban rail rail_electric rail_fast ship" speed="27.78" length="8.00" shape="2052.53,2118.48 2060.52,2118.46"/>
    </edge>
    <edge id=":4687614108_0" function="internal">
        <lane id=":4687614108_0_0" index="0" disallow="pedestrian tram rail_urban rail rail_electric rail_fast ship" speed="27.78" length="8.54" shape="1611.06,2126.77 1608.61,2127.29 1607.08,2128.41 1605.55,2129.53 1603.10,2130.05"/>
        <lane id=":4687614108_0_1" index="1" disallow="pedestrian tram rail_urban rail rail_electric rail_fast ship" speed="27.78" length="8.54" shape="1611.03,2123.57 1608.57,2124.09 1607.04,2125.21 1605.52,2126.33 1603.06,2126.85"/>
        <lane id=":4687614108_0_2" index="2" disallow="pedestrian tram rail_urban rail rail_electric rail_fast ship" speed="27.78" length="8.54" shape="1611.03,2123.57 1603.03,2123.65"/>
    </edge>
    <edge id=":4687614108_3" function="internal">
        <lane id=":4687614108_3_0" index="0" disallow="pedestrian tram rail_urban rail rail_electric rail_fast ship" speed="27.78" length="8.00" shape="1602.96,2117.25 1610.96,2117.17"/>
        <lane id=":4687614108_3_1" index="1" disallow="pedestrian tram rail_urban rail rail_electric rail_fast ship" speed="27.78" length="8.00" shape="1602.99,2120.45 1610.99,2120.37"/>
    </edge>
    <edge id=":54224608_0" function="internal">
        <lane id=":54224608_0_0" index="0" disallow="pedestrian tram rail_urban rail rail_electric rail_fast ship" speed="27.78" length="10.87" shape="2004.36,2131.41 2001.66,2130.41 2000.35,2128.21 1999.04,2126.01 1996.35,2125.00"/>
        <lane id=":54224608_0_1" index="1" disallow="pedestrian tram rail_urban rail rail_electric rail_fast ship" speed="27.78" length="10.87" shape="2004.36,2128.21 2001.67,2127.21 2000.36,2125.01 1999.05,2122.81 1996.36,2121.80"/>
    </edge>
    <edge id=":54224608_2" function="internal">
        <lane id=":54224608_2_0" index="0" disallow="pedestrian tram rail_urban rail rail_electric rail_fast ship" speed="3.65" length="1.44" shape="2004.36,2121.81 2003.16,2121.01"/>
    </edge>
    <edge id=":54224608_6" function="internal">
        <lane id=":54224608_6_0" index="0" disallow="pedestrian tram rail_urban rail rail_electric rail_fast ship" speed="3.65" length="3.23" shape="2003.16,2121.01 2002.76,2120.21 2003.16,2119.41 2004.36,2118.61"/>
    </edge>
    <edge id=":54224608_3" function="internal">
        <lane id=":54224608_3_0" index="0" disallow="pedestrian tram rail_urban rail rail_electric rail_fast ship" speed="27.78" length="7.98" shape="1996.38,2115.40 2004.36,2115.41"/>
        <lane id=":54224608_3_1" index="1" disallow="pedestrian tram rail_urban rail rail_electric rail_fast ship" speed="27.78" length="7.98" shape="1996.37,2118.60 2004.36,2118.61"/>
    </edge>
    <edge id=":54224608_5" function="internal">
        <lane id=":54224608_5_0" index="0" disallow="pedestrian tram rail_urban rail rail_electric rail_fast ship" speed="3.65" length="4.08" shape="1996.37,2118.60 1997.57,2119.40 1997.97,2120.20 1997.56,2121.00 1996.86,2121.47"/>
    </edge>
    <edge id=":54224608_7" function="internal">
        <lane id=":54224608_7_0" index="0" disallow="pedestrian tram rail_urban rail rail_electric rail_fast ship" speed="3.65" length="0.60" shape="1996.86,2121.47 1996.36,2121.80"/>
    </edge>
    <edge id=":54224614_0" function="internal">
        <lane id=":54224614_0_0" index="0" disallow="pedestrian tram rail_urban rail rail_electric rail_fast ship" speed="27.78" length="8.74" shape="2128.49,2124.33 2126.06,2124.85 2124.56,2125.97 2123.06,2127.10 2120.64,2127.66"/>
        <lane id=":54224614_0_1" index="1" disallow="pedestrian tram rail_urban rail rail_electric rail_fast ship" speed="27.78" length="8.74" shape="2128.45,2121.13 2126.02,2121.65 2124.51,2122.77 2123.00,2123.90 2120.56,2124.46"/>
    </edge>
    <edge id=":54224614_2" function="internal">
        <lane id=":54224614_2_0" index="0" disallow="pedestrian tram rail_urban rail rail_electric rail_fast ship" speed="3.65" length="4.07" shape="2128.45,2121.13 2127.24,2120.34 2126.84,2119.54 2127.23,2118.74 2127.92,2118.27"/>
    </edge>
    <edge id=":54224614_6" function="internal">
        <lane id=":54224614_6_0" index="0" disallow="pedestrian tram rail_urban rail rail_electric rail_fast ship" speed="3.65" length="0.60" shape="2127.92,2118.27 2128.42,2117.93"/>
    </edge>
    <edge id=":54224614_3" function="internal">
        <lane id=":54224614_3_0" index="0" disallow="pedestrian tram rail_urban rail rail_electric rail_fast ship" speed="27.78" length="10.91" shape="2120.20,2108.46 2122.93,2109.40 2124.29,2111.57 2125.66,2113.76 2128.39,2114.73"/>
        <lane id=":54224614_3_1" index="1" disallow="pedestrian tram rail_urban rail rail_electric rail_fast ship" speed="27.78" length="10.91" shape="2120.27,2111.66 2122.99,2112.60 2124.34,2114.77 2125.70,2116.96 2128.42,2117.93"/>
    </edge>
    <edge id=":54224614_5" function="internal">
        <lane id=":54224614_5_0" index="0" disallow="pedestrian tram rail_urban rail rail_electric rail_fast ship" speed="3.65" length="4.67" shape="2120.42,2118.06 2121.64,2118.83 2122.05,2119.62 2121.67,2120.43 2120.49,2121.26"/>
    </edge>
    <edge id=":54317342_0" function="internal">