<?xml version="1.0" encoding="UTF-8"?>

<!-- generated on 2022-07-06 16:07:42 by Eclipse SUMO netedit Version 1.12.0
<configuration xmlns:xsi="http://www.w3.org/2001/XMLSchema-instance" xsi:noNamespaceSchemaLocation="http://sumo.dlr.de/xsd/netconvertConfiguration.xsd">

    <input>
        <sumo-net-file value="C:\Users\xuanp\OneDrive%20-%20email.ucr.edu\Study\Cecert\CARTEEH\SUMO\sumo-main\CARTEEH\netrouGenerator\ChichagoAve\osm.net.xml"/>
    </input>

    <output>
        <output-file value="C:\Users\xuanp\OneDrive%20-%20email.ucr.edu\Study\Cecert\CARTEEH\SUMO\sumo-main\CARTEEH\netrouGenerator\ChichagoAve\osm.net.xml"/>
        <output.street-names value="true"/>
    </output>

    <processing>
        <geometry.min-radius.fix.railways value="false"/>
        <geometry.max-grade.fix value="false"/>
        <offset.disable-normalization value="true"/>
        <lefthand value="false"/>
    </processing>

    <junctions>
        <no-turnarounds value="true"/>
        <junctions.corner-detail value="5"/>
        <junctions.limit-turn-speed value="5.5"/>
        <rectangular-lane-cut value="false"/>
    </junctions>

    <pedestrian>
        <walkingareas value="false"/>
    </pedestrian>

    <netedit>
        <additional-files value="C:\Users\xuanp\OneDrive%20-%20email.ucr.edu\Study\Cecert\CARTEEH\SUMO\sumo-main\CARTEEH\netrouGenerator\ChichagoAve\busStop6.add.xml"/>
    </netedit>

    <report>
        <aggregate-warnings value="5"/>
    </report>

</configuration>
-->

<additional xmlns:xsi="http://www.w3.org/2001/XMLSchema-instance" xsi:noNamespaceSchemaLocation="http://sumo.dlr.de/xsd/additional_file.xsd">
    <busStop id="bs_0" lane="474688712#0_1" startPos="74.22" endPos="84.22"/>
    <busStop id="bs_1" lane="626284345#0_1" startPos="31.33" endPos="41.33"/>
    <busStop id="bs_2" lane="626283153#0_1" startPos="19.53" endPos="29.53"/>
    <busStop id="bs_3" lane="475159102#1_1" startPos="31.00" endPos="41.00"/>
    <busStop id="bs_4" lane="-474689217_1" startPos="18.65" endPos="28.65"/>
    <busStop id="bs_5" lane="626283217#0_1" startPos="62.60" endPos="72.60"/>
    <busStop id="bs_6" lane="475159103#0_1" startPos="6.06" endPos="16.06"/>
    <busStop id="bs_7" lane="474688711_1" startPos="43.53" endPos="53.53"/>
</additional>
