<?xml version="1.0" encoding="UTF-8"?>

<!-- generated on 2022-07-06 16:13:37 by Eclipse SUMO duarouter Version 1.12.0
<configuration xmlns:xsi="http://www.w3.org/2001/XMLSchema-instance" xsi:noNamespaceSchemaLocation="http://sumo.dlr.de/xsd/duarouterConfiguration.xsd">

    <input>
        <net-file value="ChicagoAve.net.xml"/>
        <additional-files value="car.add.xml"/>
        <route-files value="trips.trips.xml"/>
    </input>

    <output>
        <output-file value="cars.rou.xml"/>
        <alternatives-output value="cars.rou.alt.xml"/>
    </output>

    <time>
        <begin value="0"/>
        <end value="3600.0"/>
    </time>

    <report>
        <no-warnings value="true"/>
        <ignore-errors value="true"/>
        <no-step-log value="true"/>
    </report>

</configuration>
-->

<routes xmlns:xsi="http://www.w3.org/2001/XMLSchema-instance" xsi:noNamespaceSchemaLocation="http://sumo.dlr.de/xsd/routes_file.xsd">
    <vType id="car" vClass="passenger"/>
    <vehicle id="c0" type="car" depart="0.00">
        <route edges="80565714#5 80565714#10 474688707 474688714 474688713#0 474688713#2 474688713#4 474688711 626284345#0 626284345#4 626284345#5 626288023 80798171#7 80798171#9 80798171#10 80798171#11 7328604#6 -7098388#2"/>
    </vehicle>
    <vehicle id="c1" type="car" depart="1.50">
        <route edges="-7142812#4 626283155#0 626283155#2 626283154 626283151#0 626283151#1 626283153#0 626282455#0 654487789#0 626093615#0 626093615#2"/>
    </vehicle>
    <vehicle id="c2" type="car" depart="3.00">
        <route edges="7078477#0 -7247663#1 -80565710#6 -80565710#3 -80565710#1 -474688707 -80565714#12 -80565714#9"/>
    </vehicle>
    <vehicle id="c3" type="car" depart="4.50">
        <route edges="-7142812#4 626283155#0 626283155#2 626283154 80798171#7 -7127213#1"/>
    </vehicle>
    <vehicle id="c4" type="car" depart="6.00">
        <route edges="-7123182#6 7123182#3 7123182#7 -474689217 -626283217#4 626093615#0 626093615#2 626284343#0 626284345#0 626284345#4 626284345#5 626288023 626288020#0 -7098383#7 7098383#4"/>
    </vehicle>
    <vehicle id="c5" type="car" depart="7.50">
        <route edges="80565714#3 80565714#5 80565714#10 474688707 474688714 474688713#0 474688713#2 474688713#4 474688711 475159102#1 475159101 475159104#0 -475159105#4"/>
    </vehicle>
    <vehicle id="c6" type="car" depart="9.00">
        <route edges="-7142807#5 -7142807#3 -7142807#1 -80565710#13 -80565710#10 -80565710#7 -80565710#6 -80565710#3 -80565710#1 -474688707 -80565714#12 -7198375#6 7276317#0"/>
    </vehicle>
    <vehicle id="c7" type="car" depart="10.50">
        <route edges="7098383#0 -80798172#1 80798171#0 80798171#3 80798171#7 80798171#9 -7090087#1"/>
    </vehicle>
    <vehicle id="c8" type="car" depart="12.00">
        <route edges="-80798172#4 -80798172#3 -80798172#1 80798171#0 80798171#3 626283151#0 626283151#1 626283153#0 626282455#0 654487789#0 626283217#0 474689217 474689216 474689218#0 626091626#0 626091626#1 626112463#0 626112459#0 626091619#0 626800306#0"/>
    </vehicle>
    <vehicle id="c9" type="car" depart="13.50">
        <route edges="-7098383#1 -80565710#10 -80565710#7 -80565710#6"/>
    </vehicle>
    <vehicle id="c10" type="car" depart="15.00">
        <route edges="-7281814#2 -7142812#4 626283155#0 626283155#2 626283154 626283151#0 626283151#1 626283153#0 626282455#0 654487789#0 626283217#0 474689217 -474689217 -626283217#4"/>
    </vehicle>
    <vehicle id="c11" type="car" depart="16.50">
        <route edges="-7123182#6 7123182#3 7123182#7 -474689217 -626283217#4 626093615#0 626093615#2 626284343#0 626284345#0 626284345#4 626284345#5 626288023 626288020#0 626288020#2 626288022 626288024#0 626288024#1 626288019 514518466#1 125135491#2 125135491#5 -7281814#2"/>
    </vehicle>
    <vehicle id="c12" type="car" depart="18.00">
        <route edges="80565710#2 -80565710#3 -80565710#1 -474688707 -80565714#12 -80565714#9 -80565714#4 -80565714#2 -474688705#1 -474688706 474688706 474688705#0 80565714#0"/>
    </vehicle>
    <vehicle id="c13" type="car" depart="19.50">
        <route edges="973970332#0 626091617#1 650708094#0 -474689218#8 -474689216 -474689217 -626283217#4 626093615#0 626093615#2 626284343#0 626284345#0 626284345#4 626284345#5 626288023 -80798171#5 -7276260#4"/>
    </vehicle>
    <vehicle id="c14" type="car" depart="21.00">
        <route edges="654487789#0 626283217#0 474689217 474689216 474689218#0 626091626#0 626091626#1 626112463#0 626112459#0 626091619#0 626800306#0"/>
    </vehicle>
    <vehicle id="c15" type="car" depart="22.50">
        <route edges="7078477#0 80798171#0 -7276260#4 7276260#3"/>
    </vehicle>
    <vehicle id="c16" type="car" depart="24.00">
        <route edges="80565710#11 -80565710#13 -80565710#10 -80565710#7 -80565710#6 -80565710#3 -80565710#1 474688714 474688713#0 474688713#2 474688713#4 474688711 475159102#1 475159101 475159104#0 -475159105#4 475159105#1"/>
    </vehicle>
    <vehicle id="c17" type="car" depart="25.50">
        <route edges="-7123182#6 7123182#3 7123182#7 -474689217 -626283217#4 626283217#0 474689217"/>
    </vehicle>
    <vehicle id="c18" type="car" depart="27.00">
        <route edges="-474688713#3 -474688713#1 -474688714 80565710#0 80565710#2 80565710#4 7247663#0 80798172#0 -80798172#1"/>
    </vehicle>
    <vehicle id="c19" type="car" depart="28.50">
        <route edges="80798172#4 -80565462#3 -80565710#18 -80565710#13 -80565710#10 -80565710#7 -80565710#6 -80565710#3 -80565710#1"/>
    </vehicle>
    <vehicle id="c20" type="car" depart="30.00">
        <route edges="-80798171#5 -80798171#2 80798172#0 -7098383#1"/>
    </vehicle>
    <vehicle id="c21" type="car" depart="31.50">
        <route edges="654487789#0 626093615#0 626093615#2 626284343#0 626284345#0"/>
    </vehicle>
    <vehicle id="c22" type="car" depart="33.00">
        <route edges="80798171#11 -80798171#12 -80798171#10 -80798171#9 -80798171#8 -80798171#5 -80798171#2 -7247663#1 -80565710#6 -80565710#3"/>
    </vehicle>
    <vehicle id="c23" type="car" depart="34.50">
        <route edges="7142812#5 -7328604#11 -7328604#10 -7328604#7 -80798171#12 -80798171#10 -80798171#9 -80798171#8 626283151#0 626283151#1 626283153#0 474688712#0 -474688713#4 7276267#0"/>
    </vehicle>
    <vehicle id="c24" type="car" depart="36.00">
        <route edges="-80565714#2 -474688705#1 -474688706 973970332#0 626091617#1 650708094#0 -474689218#8 -474689216 -474689217 -626283217#4 626093615#0 626093615#2 626284343#0 626284345#0 626284345#4 626284345#5 626288023 626288020#0 626288020#2 626288022 626288024#0 626288024#1 626288019 626283158 626283157"/>
    </vehicle>
    <vehicle id="c25" type="car" depart="37.50">
        <route edges="7281810#0 -80798171#10 -80798171#9 -80798171#8 626283151#0 626283151#1 626283153#0 626282455#0 654487789#0 626283217#0 474689217 -7123182#13 -7123182#6 7123182#3"/>
    </vehicle>
    <vehicle id="c26" type="car" depart="39.00">
        <route edges="475159095 475159096#0 475159103#0 626284345#0 626284345#4 626284345#5 626288023 626288020#0 626288020#2 626288022 626288024#0 -7142807#5 -7142807#3 -7142807#1"/>
    </vehicle>
    <vehicle id="c27" type="car" depart="40.50">
        <route edges="-7123182#13 7123182#7 -474689217 -626283217#4 626093615#0 626093615#2 626284343#0 626284345#0 -7288835#1 7276260#3"/>
    </vehicle>
    <vehicle id="c28" type="car" depart="42.00">
        <route edges="7281810#0 -80798171#10 -80798171#9 -80798171#8 626288020#0 626288020#2 626288022 626288024#0 626288024#1 626288019 -514518467#1"/>
    </vehicle>
    <vehicle id="c29" type="car" depart="43.50">
        <route edges="-7123182#6 7123182#3 7123182#7 -474689217 -626283217#4 626093615#0 626093615#2 626284343#0 626284345#0 626284345#4 626284345#5 626288023 80798171#7 -80798171#8"/>
    </vehicle>
    <vehicle id="c30" type="car" depart="45.00">
        <route edges="-7328604#2 475159105#1 125135481#0 475159095 475159096#0 475159103#0 474688712#0 -474688713#4 -474688713#3 -474688713#1 -474688714 80565710#0 80565710#2 80565710#4 80565710#7 80565710#8 80565710#11 -80565710#13"/>
    </vehicle>
    <vehicle id="c31" type="car" depart="46.50">
        <route edges="7078477#0 -7247663#1 -80565710#6 -80565710#3 -80565710#1 -474688707 -80565714#12 -80565714#9 80565714#5"/>
    </vehicle>
    <vehicle id="c32" type="car" depart="48.00">
        <route edges="80798171#3 626283151#0 626283151#1 626283153#0 474688712#0 -474688713#4 -474688713#3 -474688713#1 -474688714 -474688707 -80565714#12 -80565714#9 -80565714#4"/>
    </vehicle>
    <vehicle id="c33" type="car" depart="49.50">
        <route edges="-7276260#8 -7276260#7 7098383#4 626288020#2 626288022 7142812#1"/>
    </vehicle>
    <vehicle id="c34" type="car" depart="51.00">
        <route edges="-125135491#1 626283158 626283157 626283155#0 626283155#2 626283154 626283151#0"/>
    </vehicle>
    <vehicle id="c35" type="car" depart="52.50">
        <route edges="-80565710#3 -80565710#1 474688714 474688713#0 474688713#2 474688713#4 474688711 626284345#0 626284345#4 626284345#5 626288023 626288020#0 626288020#2 626288022 626288024#0 626288024#1 626288019 514518466#1 125135491#2 -125135491#4"/>
    </vehicle>
    <vehicle id="c36" type="car" depart="54.00">
        <route edges="80565462#2 80565462#4 80565462#5 80565462#8 626283158 626283157 626283155#0 626283155#2 626283154 626283151#0 626283151#1 626283153#0 475159102#1 475159101 475159104#0 -475159105#4"/>
    </vehicle>
    <vehicle id="c37" type="car" depart="55.50">
        <route edges="-7328604#2 475159105#1 125135481#0 475159095 475159096#0 475159103#0 626284345#0 626284345#4 626284345#5 626288023 626288020#0 626288020#2 626288022 626288024#0 626288024#1 626288019 -514518467#1 -80565462#7 -80565462#4 -80798172#4"/>
    </vehicle>
    <vehicle id="c38" type="car" depart="57.00">
        <route edges="973970332#0 626091617#1 650708094#0 -474689218#8 -474689216 -474689217 -626283217#4 626093615#0"/>
    </vehicle>
    <vehicle id="c39" type="car" depart="58.50">
        <route edges="125135491#2 -125135491#4 -125135491#1 626283158 626283157 626283155#0 626283155#2 626283154 80798171#7 80798171#9 80798171#10"/>
    </vehicle>
    <vehicle id="c40" type="car" depart="60.00">
        <route edges="-7247663#1 7247663#0 80798171#0 80798171#3 80798171#7 80798171#9 80798171#10 80798171#11 7328604#6 -7098388#2"/>
    </vehicle>
    <vehicle id="c41" type="car" depart="61.50">
        <route edges="-7276260#8 -7276260#7 -7276260#6 80798171#3 80798171#7 80798171#9 80798171#10 80798171#11 -7328604#5 -7328604#2"/>
    </vehicle>
    <vehicle id="c42" type="car" depart="63.00">
        <route edges="80798172#2 -80798172#3 -80798172#1"/>
    </vehicle>
    <vehicle id="c43" type="car" depart="64.50">
        <route edges="-7142807#5 -7276260#7 -7276260#6 80798171#3 80798171#7 80798171#9 80798171#10 80798171#11 -7328604#5"/>
    </vehicle>
    <vehicle id="c44" type="car" depart="66.00">
        <route edges="-7142807#1 -80565710#13 -80565710#10 -80565710#7 -80565710#6 -80565710#3 -80565710#1 -474688707 -80565714#12 -80565714#9"/>
    </vehicle>
    <vehicle id="c45" type="car" depart="67.50">
        <route edges="80798172#2 -80798172#3 -80798172#1 80798171#0 80798171#3 626283151#0 626283151#1 626283153#0 626282455#0 654487789#0 626283217#0 474689217 7123182#14"/>
    </vehicle>
    <vehicle id="c46" type="car" depart="69.00">
        <route edges="-125135491#9 -125135491#7 -125135491#4 -125135491#1 626283158 626283157 626283155#0 626283155#2 626283154 626283151#0 626283151#1 626283153#0 474688712#0 -474688713#4 -474688713#3 -474688713#1 -474688714 -474688707 -80565714#12 -80565714#9 -80565714#4 -80565714#2"/>
    </vehicle>
    <vehicle id="c47" type="car" depart="70.50">
        <route edges="7276260#0 7276260#3 -80798171#2"/>
    </vehicle>
    <vehicle id="c48" type="car" depart="72.00">
        <route edges="626800306#0 474688706 474688705#0 80565714#0 80565714#3 80565714#5 80565714#10 474688707 80565710#0 80565710#2 80565710#4 80565710#7 80565710#8 80565710#11 80565710#14 -80565710#18"/>
    </vehicle>
    <vehicle id="c49" type="car" depart="73.50">
        <route edges="626283217#0 474689217 -474689217 -626283217#4 626093615#0 626093615#2 626284343#0 475159102#1 475159101 475159104#0 -475159105#4 7328604#0 -7328604#2"/>
    </vehicle>
    <vehicle id="c50" type="car" depart="75.00">
        <route edges="-7276260#2 474688711 475159102#1 475159101 475159104#0"/>
    </vehicle>
    <vehicle id="c51" type="car" depart="76.50">
        <route edges="7142807#4 -7142807#5 -7142807#3 -7142807#1 -80565710#13 -80565710#10 -80565710#7 -80565710#6 -80565710#3 -80565710#1"/>
    </vehicle>
    <vehicle id="c52" type="car" depart="78.00">
        <route edges="-7142807#1 -80565710#13 -80565710#10 -80565710#7 7247663#0 80798171#0 80798171#3 80798171#7 80798171#9 80798171#10 80798171#11 7328604#6 -7098388#2"/>
    </vehicle>
    <vehicle id="c53" type="car" depart="79.50">
        <route edges="125135481#0 475159095 475159096#0 475159103#0 626284345#0 626284345#4 626284345#5 626288023 626288020#0 626288020#2 626288022 626283155#0 7098388#0"/>
    </vehicle>
    <vehicle id="c54" type="car" depart="81.00">
        <route edges="-7123182#18 -474689217 -626283217#4 626093615#0 626093615#2 626284343#0 475159102#1 475159101 475159104#0 -475159105#4 7328604#0 -7328604#2"/>
    </vehicle>
    <vehicle id="c55" type="car" depart="82.50">
        <route edges="-7123182#18 -474689217 -626283217#4 626093615#0 626093615#2 626284343#0 475159102#1 475159101 475159104#0"/>
    </vehicle>
    <vehicle id="c56" type="car" depart="84.00">
        <route edges="80798171#9 -80798171#9 -80798171#8 -80798171#5 -80798171#2 -7247663#1 -80565710#6 -80565710#3 -80565710#1"/>
    </vehicle>
    <vehicle id="c57" type="car" depart="85.50">
        <route edges="-7276260#6 -80798171#2 -7247663#1 -80565710#6 -80565710#3 -80565710#1 -474688707 -80565714#12 -7198375#6"/>
    </vehicle>
    <vehicle id="c58" type="car" depart="87.00">
        <route edges="80565710#2 80565710#4 80565710#7 80565710#8 80565710#11 -80565710#13"/>
    </vehicle>
    <vehicle id="c59" type="car" depart="88.50">
        <route edges="-7276260#8 -7276260#7 -7276260#6 80798171#3 626283151#0 626283151#1 626283153#0 626282455#0 654487789#0 626283217#0 474689217 -7123182#13 7123182#7"/>
    </vehicle>
    <vehicle id="c60" type="car" depart="90.00">
        <route edges="-7098388#2 626283155#2 626283154 626288020#0"/>
    </vehicle>
    <vehicle id="c61" type="car" depart="91.50">
        <route edges="-80565710#3 -80565710#1 474688714 474688713#0 474688713#2 474688713#4 474688711 626284345#0 626284345#4 626284345#5"/>
    </vehicle>
    <vehicle id="c62" type="car" depart="93.00">
        <route edges="474688711 626284345#0 626284345#4 626284345#5 626288023 -80798171#5 80798171#3"/>
    </vehicle>
    <vehicle id="c63" type="car" depart="94.50">
        <route edges="7276260#5 -7276260#6 80798171#3 626283151#0 626283151#1 626283153#0 626282455#0 654487789#0 626283217#0 474689217 -7123182#13 7123182#7"/>
    </vehicle>
    <vehicle id="c64" type="car" depart="96.00">
        <route edges="7276260#8 80565462#8 626283158 626283157 626283155#0 626283155#2 626283154 626283151#0 626283151#1 626283153#0 626282455#0 654487789#0 626283217#0 474689217 -7123182#13 -7123182#6"/>
    </vehicle>
    <vehicle id="c65" type="car" depart="97.50">
        <route edges="650708094#0 -474689218#8 -474689216 -7123182#13"/>
    </vehicle>
    <vehicle id="c66" type="car" depart="99.00">
        <route edges="475159104#0 125135481#0 475159095 475159096#0 475159103#0 474688712#0 -474688713#4 -474688713#3 -474688713#1 -474688714 -474688707 -80565714#12 -80565714#9"/>
    </vehicle>
    <vehicle id="c67" type="car" depart="100.50">
        <route edges="7098388#0 7328604#9 7328604#11 7328604#12 7328604#13 -7328604#13"/>
    </vehicle>
    <vehicle id="c68" type="car" depart="102.00">
        <route edges="7247663#0 80798171#0 80798171#3 626283151#0 626283151#1 626283153#0 626282455#0 654487789#0 626283217#0 474689217 7123182#14 -7123182#18"/>
    </vehicle>
    <vehicle id="c69" type="car" depart="103.50">
        <route edges="-475159105#4 475159105#1 125135481#0 475159095 475159096#0 475159103#0 626282455#0 654487789#0 626283217#0 474689217 474689216 474689218#0 -474689218#8"/>
    </vehicle>
    <vehicle id="c70" type="car" depart="105.00">
        <route edges="-80565462#3 -80565710#18 -80565710#13 -80565710#10 -80565710#7 7247663#0 80798171#0 80798171#3 80798171#7 80798171#9 80798171#10 -7281810#1 7288838#0"/>
    </vehicle>
    <vehicle id="c71" type="car" depart="106.50">
        <route edges="7142812#5 -7328604#11 -7328604#10 -7328604#7 -80798171#12 -80798171#10 -80798171#9 -80798171#8 626283151#0 626283151#1 626283153#0 626282455#0 654487789#0 626283217#0 474689217 -7123182#13 -7123182#6 -7276317#7"/>
    </vehicle>
    <vehicle id="c72" type="car" depart="108.00">
        <route edges="-80798172#3 -7098383#1 -80565710#10 -80565710#7 -80565710#6 -80565710#3 -80565710#1 -474688707 -80565714#12 80565714#10 474688707"/>
    </vehicle>
    <vehicle id="c73" type="car" depart="109.50">
        <route edges="474688713#4 -474688713#4 -474688713#3 -474688713#1 -474688714 -474688707 -80565714#12 -80565714#9 7123182#0"/>
    </vehicle>
    <vehicle id="c74" type="car" depart="111.00">
        <route edges="-80798171#9 -80798171#8 626288020#0 -7098383#7 -7098383#3 -7098383#1"/>
    </vehicle>
    <vehicle id="c75" type="car" depart="112.50">
        <route edges="-80798172#4 -80798172#3 -80798172#1 80798171#0 -7276260#4"/>
    </vehicle>
    <vehicle id="c76" type="car" depart="114.00">
        <route edges="474688711 626284345#0 626284345#4 626284345#5 626288023 -80798171#5 -80798171#2 -7247663#1 -80565710#6"/>
    </vehicle>
    <vehicle id="c77" type="car" depart="115.50">
        <route edges="474689218#0 -474689218#8 -474689216 -474689217 -626283217#4 626093615#0 626093615#2 626284343#0 475159102#1 475159101 475159104#0 -475159105#4 7328604#0"/>
    </vehicle>
    <vehicle id="c78" type="car" depart="117.00">
        <route edges="125135491#5 -125135491#7 -125135491#4 -125135491#1 626283158 626283157 626283155#0 626283155#2 626283154 -80798171#5 -7276260#4 7276260#3"/>
    </vehicle>
    <vehicle id="c79" type="car" depart="118.50">
        <route edges="-80565710#10 -80565710#7 7247663#0 80798171#0 80798171#3 626288020#0 626288020#2 626288022 626288024#0 626288024#1 626288019 514518466#1 125135491#2 -125135491#4"/>
    </vehicle>
    <vehicle id="c80" type="car" depart="120.00">
        <route edges="626283151#1 626283153#0 626284345#0 -7288835#1 -7276260#2"/>
    </vehicle>
    <vehicle id="c81" type="car" depart="121.50">
        <route edges="7123182#14 -7123182#18 -474689217 -626283217#4 626093615#0 626093615#2 626284343#0 626284345#0 626284345#4 626284345#5 626288023 80798171#7 80798171#9 80798171#10 80798171#11 -7328604#5"/>
    </vehicle>
    <vehicle id="c82" type="car" depart="123.00">
        <route edges="-626799488#6 626091617#1 650708094#0 626091626#0 626091626#1 626112463#0 626112459#0 626091619#0 626799488#0"/>
    </vehicle>
    <vehicle id="c83" type="car" depart="124.50">
        <route edges="7123182#14 -7123182#18 -474689217 -626283217#4 626093615#0 626093615#2 626284343#0 474688712#0 -474688713#4 -474688713#3 -474688713#1 -474688714 80565710#0"/>
    </vehicle>
    <vehicle id="c84" type="car" depart="126.00">
        <route edges="626283151#1 626283153#0 626284345#0 626284345#4 626284345#5 626288023 -80798171#5 -80798171#2 -7078477#1"/>
    </vehicle>
    <vehicle id="c85" type="car" depart="127.50">
        <route edges="-7276317#7 -7198375#1 -7276267#3 474688713#4 474688711 626282455#0 654487789#0 626283217#0"/>
    </vehicle>
    <vehicle id="c86" type="car" depart="129.00">
        <route edges="626283153#0 626284345#0 626284345#4 626284345#5 626288023 626288020#0 626288020#2 626288022 626288024#0 626288024#1 626288019 -514518467#1 -80565462#7 -80565462#4 -80798172#4"/>
    </vehicle>
    <vehicle id="c87" type="car" depart="130.50">
        <route edges="475159102#1 475159101 475159104#0 125135481#0 475159095 475159096#0 475159103#0 474688712#0 7276260#0"/>
    </vehicle>
    <vehicle id="c88" type="car" depart="132.00">
        <route edges="7247663#0 80798172#0 80798172#2 -80798172#3"/>
    </vehicle>
    <vehicle id="c89" type="car" depart="133.50">
        <route edges="-7328604#2 475159105#1 125135481#0 475159095 475159096#0 475159103#0 474688712#0 -474688713#4 -474688713#3 -474688713#1 -474688714 -474688707 -80565714#12 -80565714#9 80565714#5"/>
    </vehicle>
    <vehicle id="c90" type="car" depart="135.00">
        <route edges="-475159105#4 475159105#1 125135481#0 475159095 475159096#0 475159103#0 474688712#0 -474688713#4 -474688713#3 -474688713#1 -474688714 80565710#0 80565710#2 80565710#4 80565710#7 80565710#8 7098383#0"/>
    </vehicle>
    <vehicle id="c91" type="car" depart="136.50">
        <route edges="-7142812#4 626283155#0 626283155#2 626283154 626283151#0 626283151#1 626283153#0 626282455#0 654487789#0 626283217#0 474689217 474689216 474689218#0 626091626#0 650708099"/>
    </vehicle>
    <vehicle id="c92" type="car" depart="138.00">
        <route edges="-7276317#7 -7198375#1 -7276267#3 474688713#4 474688711 626284345#0 626284345#4 626284345#5 626288023 80798171#7 80798171#9 80798171#10 80798171#11 -80798171#12"/>
    </vehicle>
    <vehicle id="c93" type="car" depart="139.50">
        <route edges="626283155#2 626283154 626288020#0 626288020#2 626288022 626288024#0 626288024#1 626288019 -514518467#1 -80565462#7 -80565462#4 -80565462#3 -80565710#18"/>
    </vehicle>
    <vehicle id="c94" type="car" depart="141.00">
        <route edges="-7328604#5 7328604#3 -80798171#12 -80798171#10 -80798171#9 -80798171#8 626288020#0 626288020#2 626288022 626288024#0 626288024#1 626288019 -514518467#1 80565462#8"/>
    </vehicle>
    <vehicle id="c95" type="car" depart="142.50">
        <route edges="-7328604#5 -7328604#2 475159105#1 125135481#0 475159095 475159096#0 475159103#0 626282455#0 654487789#0 626093615#0 626093615#2"/>
    </vehicle>
    <vehicle id="c96" type="car" depart="144.00">
        <route edges="7276260#3 -80798171#2 -7247663#1 80565710#7 80565710#8"/>
    </vehicle>
    <vehicle id="c97" type="car" depart="145.50">
        <route edges="-80798171#9 -80798171#8 -80798171#5 -80798171#2 -7247663#1 7247663#0"/>
    </vehicle>
    <vehicle id="c98" type="car" depart="147.00">
        <route edges="-80565462#3 80565462#2 80565462#4 80565462#5 80565462#8 514518466#1 125135491#2 125135491#5 -7281814#2"/>
    </vehicle>
    <vehicle id="c99" type="car" depart="148.50">
        <route edges="7090087#0 -80798171#9 -80798171#8 626288020#0 626288020#2 626288022 626288024#0 -7142807#5 -7142807#3 -80798172#3"/>
    </vehicle>
    <vehicle id="c100" type="car" depart="150.00">
        <route edges="-7281814#2 7142812#5 -7328604#11 -7328604#10 -7328604#7 -7328604#5 -7288838#1 7281810#0"/>
    </vehicle>
    <vehicle id="c101" type="car" depart="151.50">
        <route edges="-80565714#4 80565714#3 80565714#5 80565714#10 474688707 474688714 474688713#0 -474688713#1"/>
    </vehicle>
    <vehicle id="c102" type="car" depart="153.00">
        <route edges="80798171#10 -80798171#10 -80798171#9 -80798171#8 -80798171#5 -80798171#2 -7078477#1"/>
    </vehicle>
    <vehicle id="c103" type="car" depart="154.50">
        <route edges="-7142807#3 80798172#4 80565462#4 80565462#5 80565462#8 514518466#1 125135491#2 -125135491#4"/>
    </vehicle>
    <vehicle id="c104" type="car" depart="156.00">
        <route edges="7123182#7 -474689217 -626283217#4 626093615#0 626093615#2 626284343#0 626284345#0 626284345#4 626284345#5 626288023 626288020#0 -7098383#7 -7098383#3 7098383#2"/>
    </vehicle>
    <vehicle id="c105" type="car" depart="157.50">
        <route edges="7247663#0 80798171#0 80798171#3 626283151#0 626283151#1 626283153#0 474688712#0 -474688713#4"/>
    </vehicle>
    <vehicle id="c106" type="car" depart="159.00">
        <route edges="626288024#0 626288024#1 626288019 626283158 626283157 626283155#0 626283155#2 626283154 626283151#0 626283151#1 626283153#0 626282455#0 654487789#0 626283217#0 474689217 474689216 474689218#0 626091626#0 626091626#1 626112463#0 626112459#0 626091619#0 626800306#0 973970332#0"/>
    </vehicle>
    <vehicle id="c107" type="car" depart="160.50">
        <route edges="-474688705#1 -474688706 474688706 474688705#0 80565714#0 80565714#3 80565714#5 -7198375#6 7276317#0"/>
    </vehicle>
    <vehicle id="c108" type="car" depart="162.00">
        <route edges="7276260#8 80565462#8 626283158 626283157 626283155#0 626283155#2 626283154 80798171#7 80798171#9 80798171#10 80798171#11 -7328604#5"/>
    </vehicle>
    <vehicle id="c109" type="car" depart="163.50">
        <route edges="7276260#8 80565462#8 626283158 626283157 626283155#0 626283155#2 626283154 -80798171#5 -7276260#4 -7276260#2"/>
    </vehicle>
    <vehicle id="c110" type="car" depart="165.00">
        <route edges="-7276267#3 474688713#4 474688711 626284345#0 626284345#4 626284345#5 626288023 626288020#0 626288020#2 626288022 7142812#1 7281814#0"/>
    </vehicle>
    <vehicle id="c111" type="car" depart="166.50">
        <route edges="-7276260#2 474688711 626282455#0"/>
    </vehicle>
    <vehicle id="c112" type="car" depart="168.00">
        <route edges="7276260#7 -7142807#3 -7142807#1 -80565710#13 -80565710#10 -80565710#7 -80565710#6 -80565710#3 -80565710#1 -474688707 -80565714#12 -80565714#9 -80565714#4 -80565714#2"/>
    </vehicle>
    <vehicle id="c113" type="car" depart="169.50">
        <route edges="-80798172#4 -80798172#3 -80798172#1 80798171#0 80798171#3 626283151#0 626283151#1 626283153#0 475159102#1 475159101 475159104#0"/>
    </vehicle>
    <vehicle id="c114" type="car" depart="171.00">
        <route edges="-474689218#8 -474689216 -474689217 -626283217#4 626093615#0 626093615#2 626284343#0 626284345#0 626284345#4 626284345#5 626288023 626288020#0 626288020#2 626288022 626288024#0 -7142807#5 7142807#4"/>
    </vehicle>
    <vehicle id="c115" type="car" depart="172.50">
        <route edges="-626799488#6 626091617#1 650708094#0 -474689218#8 -474689216 -474689217 -626283217#4 626093615#0 626093615#2 626284343#0 626284345#0 626284345#4 626284345#5 626288023 80798171#7 80798171#9 80798171#10 80798171#11 7328604#6 -7328604#7"/>
    </vehicle>
    <vehicle id="c116" type="car" depart="174.00">
        <route edges="80565714#5 80565714#10 474688707 474688714 474688713#0 474688713#2 474688713#4 474688711 626284345#0 626284345#4 626284345#5 626288023 626288020#0 626288020#2 626288022 626288024#0 -7142807#5"/>
    </vehicle>
    <vehicle id="c117" type="car" depart="175.50">
        <route edges="-7328604#5 7328604#3 -80798171#12 -80798171#10 -80798171#9 -80798171#8 626288020#0 626288020#2"/>
    </vehicle>
    <vehicle id="c118" type="car" depart="177.00">
        <route edges="-7276317#7 7276317#0 7123182#3 7123182#7 474689216 474689218#0 -474689218#8"/>
    </vehicle>
    <vehicle id="c119" type="car" depart="178.50">
        <route edges="973970332#0 626091617#1 650708094#0 -474689218#8 -474689216 -474689217 -626283217#4 626093615#0 626093615#2 626284343#0 474688712#0 -474688713#4 7276267#0 7198375#0"/>
    </vehicle>
    <vehicle id="c120" type="car" depart="180.00">
        <route edges="626288020#0 626288020#2 626288022 626283155#0 626283155#2 626283154 626283151#0 626283151#1 626283153#0 626282455#0 654487789#0 626283217#0 474689217 -7123182#13 7123182#7"/>
    </vehicle>
    <vehicle id="c121" type="car" depart="181.50">
        <route edges="-80798171#5 -80798171#2 -7247663#1 80565710#7 80565710#8 80565710#11 80565710#14 -80565710#18"/>
    </vehicle>
    <vehicle id="c122" type="car" depart="183.00">
        <route edges="-80565714#9 80565714#5 80565714#10 474688707 474688714 474688713#0 474688713#2 474688713#4 474688711 475159102#1 475159101 475159104#0 -475159105#4"/>
    </vehicle>
    <vehicle id="c123" type="car" depart="184.50">
        <route edges="7098383#2 -7276260#6 -80798171#2 -7247663#1 -80565710#6"/>
    </vehicle>
    <vehicle id="c124" type="car" depart="186.00">
        <route edges="-474688714 474688714 474688713#0 474688713#2 474688713#4 474688711 626284345#0 626284345#4 626284345#5 626288023 626288020#0 626288020#2 626288022 626288024#0 626288024#1 626288019 514518466#1 125135491#2 125135491#5 125135491#8 -7328604#14 -7328604#13"/>
    </vehicle>
    <vehicle id="c125" type="car" depart="187.50">
        <route edges="-125135491#7 -125135491#4 -125135491#1 626283158 626283157 626283155#0 626283155#2 626283154 626283151#0 626283151#1 626283153#0 626282455#0 654487789#0 626283217#0 474689217 474689216 474689218#0 626091626#0 626091626#1 626112463#0 626112459#0 626091619#0 626800306#0 474688706 474688705#0 80565714#0"/>
    </vehicle>
    <vehicle id="c126" type="car" depart="189.00">
        <route edges="7276260#8 80565462#8 626283158 626283157 626283155#0 626283155#2 626283154 -80798171#5 -7276260#4"/>
    </vehicle>
    <vehicle id="c127" type="car" depart="190.50">
        <route edges="7281810#0 80798171#11 -80798171#12"/>
    </vehicle>
    <vehicle id="c128" type="car" depart="192.00">
        <route edges="626284345#0 626284345#4 704059434 626283151#1 626283153#0 474688712#0 -474688713#4 -474688713#3 -474688713#1"/>
    </vehicle>
    <vehicle id="c129" type="car" depart="193.50">
        <route edges="-7142812#4 626288024#0 -7142807#5 -7142807#3"/>
    </vehicle>
    <vehicle id="c130" type="car" depart="195.00">