<?xml version="1.0" encoding="UTF-8"?>

<!-- generated on 2022-07-06 15:27:24 by Eclipse SUMO netedit Version 1.12.0
<configuration xmlns:xsi="http://www.w3.org/2001/XMLSchema-instance" xsi:noNamespaceSchemaLocation="http://sumo.dlr.de/xsd/netconvertConfiguration.xsd">

    <input>
        <sumo-net-file value="C:\Users\xuanp\OneDrive%20-%20email.ucr.edu\Study\Cecert\CARTEEH\SUMO\sumo-main\CARTEEH\netrouGenerator\ChichagoAve\osm.net.xml"/>
    </input>

    <output>
        <output-file value="C:\Users\xuanp\OneDrive%20-%20email.ucr.edu\Study\Cecert\CARTEEH\SUMO\sumo-main\CARTEEH\netrouGenerator\ChichagoAve\osm.net.xml"/>
        <output.street-names value="true"/>
    </output>

    <processing>
        <geometry.min-radius.fix.railways value="false"/>
        <geometry.max-grade.fix value="false"/>
        <offset.disable-normalization value="true"/>
        <lefthand value="false"/>
    </processing>

    <junctions>
        <no-turnarounds value="true"/>
        <junctions.corner-detail value="5"/>
        <junctions.limit-turn-speed value="5.5"/>
        <rectangular-lane-cut value="false"/>
    </junctions>

    <pedestrian>
        <walkingareas value="false"/>
    </pedestrian>

    <netedit>
        <additional-files value="C:\Users\xuanp\OneDrive%20-%20email.ucr.edu\Study\Cecert\CARTEEH\SUMO\sumo-main\CARTEEH\netrouGenerator\ChichagoAve\osm.poly.xml"/>
    </netedit>

    <report>
        <aggregate-warnings value="5"/>
    </report>

</configuration>
-->

<additional xmlns:xsi="http://www.w3.org/2001/XMLSchema-instance" xsi:noNamespaceSchemaLocation="http://sumo.dlr.de/xsd/additional_file.xsd">
    <poly id="1025801654" type="leisure.pitch" color="207,245,201" fill="1" layer="-2.00" shape="2070.387987,1741.931525 2081.333823,1741.872363 2081.460209,1765.611276 2070.523638,1765.670407 2070.387987,1741.931525"/>
    <poly id="1025801654#1" type="sport.tennis" color="79,230,125" fill="1" layer="-2.00" shape="2070.387987,1741.931525 2081.333823,1741.872363 2081.460209,1765.611276 2070.523638,1765.670407 2070.387987,1741.931525"/>
    <poly id="1025801655" type="leisure.pitch" color="207,245,201" fill="1" layer="-2.00" shape="2084.206622,1741.884834 2095.143220,1741.825719 2095.269572,1765.564632 2084.333001,1765.623747 2084.206622,1741.884834"/>
    <poly id="1025801655#1" type="sport.tennis" color="79,230,125" fill="1" layer="-2.00" shape="2084.206622,1741.884834 2095.143220,1741.825719 2095.269572,1765.564632 2084.333001,1765.623747 2084.206622,1741.884834"/>
    <poly id="1025801656" type="leisure.pitch" color="207,245,201" fill="1" layer="-2.00" shape="2098.200124,1741.649077 2109.145960,1741.589947 2109.272314,1765.339947 2098.335743,1765.399046 2098.200124,1741.649077"/>
    <poly id="1025801656#1" type="sport.tennis" color="79,230,125" fill="1" layer="-2.00" shape="2098.200124,1741.649077 2109.145960,1741.589947 2109.272314,1765.339947 2098.335743,1765.399046 2098.200124,1741.649077"/>
    <poly id="1057767117" type="amenity.parking_space" color="237,199,199" fill="1" layer="-1.00" shape="1456.606196,1476.450767 1464.681292,1476.910830 1466.323509,1470.950934 1457.798566,1471.301842 1456.606196,1476.450767"/>
    <poly id="133595319" type="leisure.pitch" color="207,245,201" fill="1" layer="-2.00" shape="1200.550775,1121.589612 1199.582342,1028.875381 1193.745773,1024.061285 1106.414209,1025.007947 1101.275801,1035.005005 1101.649569,1049.495680 1106.238812,1067.508743 1114.717943,1088.402233 1123.171598,1099.327735 1139.053406,1110.537875 1157.513081,1116.594264 1169.172956,1119.769261 1200.550775,1121.589612"/>
    <poly id="133595319#1" type="sport.baseball" color="79,230,125" fill="1" layer="-2.00" shape="1200.550775,1121.589612 1199.582342,1028.875381 1193.745773,1024.061285 1106.414209,1025.007947 1101.275801,1035.005005 1101.649569,1049.495680 1106.238812,1067.508743 1114.717943,1088.402233 1123.171598,1099.327735 1139.053406,1110.537875 1157.513081,1116.594264 1169.172956,1119.769261 1200.550775,1121.589612"/>
    <poly id="190548149" type="building.yes" color="255,230,230" fill="1" layer="-1.00" shape="1997.582666,1227.053183 1997.782218,1152.319656 2026.658114,1151.944710 2026.561895,1191.761898 2020.344883,1191.749672 2020.252083,1227.109491 1997.582666,1227.053183"/>
    <poly id="190548151" type="building.yes" color="255,230,230" fill="1" layer="-1.00" shape="1997.034843,1068.020436 1997.248171,1084.640563 1991.918208,1084.714054 1992.429299,1123.786290 1995.320574,1123.743233 1995.703826,1152.348870 1997.782218,1152.319656 2026.658114,1151.944710 2061.769187,1151.482249 2060.662148,1067.195333 1997.034843,1068.020436"/>
    <poly id="190548158" type="building.yes" color="255,230,230" fill="1" layer="-1.00" shape="1927.169186,1051.680800 1994.213508,1050.533193 1993.846362,1029.411877 1926.801890,1030.559485 1927.169186,1051.680800"/>
    <poly id="190548161" type="building.yes" color="255,230,230" fill="1" layer="-1.00" shape="1904.886916,1279.968862 1927.648133,1279.891580 1927.520330,1242.237294 1904.453167,1242.016240 1904.886916,1279.968862"/>
    <poly id="190548164" type="building.yes" color="255,230,230" fill="1" layer="-1.00" shape="1903.666849,1192.732920 1923.971076,1192.663977 1923.556206,1162.971826 1903.262169,1163.340110 1903.666849,1192.732920"/>
    <poly id="190548167" type="building.yes" color="255,230,230" fill="1" layer="-1.00" shape="1967.373218,1283.604353 1967.104799,1258.923460 1976.730076,1258.824308 1976.989233,1283.505233 1967.373218,1283.604353"/>
    <poly id="190548174" type="building.yes" color="255,230,230" fill="1" layer="-1.00" shape="2056.807051,1287.681344 2057.109096,1259.527991 2070.356345,1259.671714 2070.179134,1275.572448 2075.333927,1275.632646 2075.250349,1283.704964 2070.354248,1283.654979 2070.312910,1287.824192 2056.807051,1287.681344"/>
    <poly id="190548178" type="amenity.fast_food" color="237,199,199" fill="1" layer="-1.00" shape="1909.213005,1098.566211 1909.366672,1078.529746 1931.380909,1078.687862 1931.287195,1091.905028 1920.035274,1091.821251 1919.984521,1098.640518 1909.213005,1098.566211"/>
    <poly id="190548178#1" type="building.yes" color="255,230,230" fill="1" layer="-1.00" shape="1909.213005,1098.566211 1909.366672,1078.529746 1931.380909,1078.687862 1931.287195,1091.905028 1920.035274,1091.821251 1919.984521,1098.640518 1909.213005,1098.566211"/>
    <poly id="190548182" type="building.yes" color="255,230,230" fill="1" layer="-1.00" shape="1744.301117,950.050036 1744.146718,902.106229 1850.197578,901.755950 1850.360678,949.699725 1744.301117,950.050036"/>
    <poly id="190548185" type="building.yes" color="255,230,230" fill="1" layer="-1.00" shape="1757.790033,1080.464948 1813.946707,1080.473100 1813.947999,996.770086 1757.790829,996.761930 1757.790033,1080.464948"/>
    <poly id="190548187" type="building.yes" color="255,230,230" fill="1" layer="-1.00" shape="1739.143533,1092.647728 1739.597287,1133.560759 1747.125973,1133.535060 1754.048524,1137.259167 1777.578967,1137.810917 1777.302127,1148.733504 1782.152340,1148.850022 1801.542515,1148.894814 1802.831026,1090.556658 1739.143533,1092.647728"/>
    <poly id="190548190" type="building.yes" color="255,230,230" fill="1" layer="-1.00" shape="1782.152340,1148.850022 1782.207830,1203.058882 1812.284380,1202.657012 1812.450896,1178.318367 1801.485668,1178.300283 1801.542515,1148.894814 1782.152340,1148.850022"/>
    <poly id="190548193" type="building.yes" color="255,230,230" fill="1" layer="-1.00" shape="1812.284380,1202.657012 1812.903183,1248.725391 1782.780743,1249.171769 1782.493306,1221.763303 1782.207830,1203.058882 1812.284380,1202.657012"/>
    <poly id="190548196" type="building.yes" color="255,230,230" fill="1" layer="-1.00" shape="1782.780743,1249.171769 1727.541553,1249.737253 1727.253956,1222.328788 1782.493306,1221.763303 1782.780743,1249.171769"/>
    <poly id="190548199" type="building.yes" color="255,230,230" fill="1" layer="-1.00" shape="1706.728396,1287.363296 1706.642107,1259.410831 1706.528463,1236.969178 1685.605449,1237.051792 1685.796256,1287.445942 1706.728396,1287.363296"/>
    <poly id="190548826" type="leisure.pitch" color="207,245,201" fill="1" layer="-2.00" shape="1602.754309,1687.396163 1601.787222,1623.566020 1630.342746,1624.466065 1652.433710,1636.609353 1661.003275,1652.036651 1668.564258,1666.968449 1670.118550,1681.177911 1669.404491,1691.159530 1609.784928,1693.104540 1602.754309,1687.396163"/>
    <poly id="190548826#1" type="sport.baseball" color="79,230,125" fill="1" layer="-2.00" shape="1602.754309,1687.396163 1601.787222,1623.566020 1630.342746,1624.466065 1652.433710,1636.609353 1661.003275,1652.036651 1668.564258,1666.968449 1670.118550,1681.177911 1669.404491,1691.159530 1609.784928,1693.104540 1602.754309,1687.396163"/>
    <poly id="190548827" type="amenity.parking" color="184,184,179" fill="1" layer="-1.00" shape="1503.225157,1698.692882 1521.773561,1698.717808 1521.893568,1623.452229 1503.344978,1623.416214 1503.225157,1698.692882"/>
    <poly id="190548829" type="leisure.playground" color="207,245,201" fill="1" layer="-2.00" shape="1544.334244,1680.888436 1540.726759,1676.753927 1539.195033,1671.858305 1539.558861,1667.521657 1542.002340,1663.554856 1545.973224,1660.536375 1550.320032,1659.390472 1554.673314,1660.129504 1557.718591,1664.631852 1559.246424,1668.396517 1567.198947,1668.180720 1571.153445,1663.077767 1574.368834,1660.627377 1578.903622,1660.423320 1582.314066,1660.977105 1585.352863,1663.594528 1586.884566,1668.490158 1587.476020,1673.954500 1586.353433,1677.916757 1584.085628,1679.244006 1577.445614,1677.004843 1567.613903,1678.735047 1559.867018,1682.343057 1553.236710,1682.931311 1546.049586,1682.767500 1544.334244,1680.888436"/>
    <poly id="232945771" type="building.yes" color="255,230,230" fill="1" layer="-1.00" shape="1113.606453,1350.348351 1132.969023,1350.536009 1132.618666,1324.170026 1114.793861,1325.241046 1115.591925,1336.902817 1113.303698,1337.675850 1113.606453,1350.348351"/>
    <poly id="232945775" type="building.yes" color="255,230,230" fill="1" layer="-1.00" shape="1047.935084,1365.789828 1068.312854,1365.718790 1068.271354,1353.810450 1048.400728,1353.624696 1047.935084,1365.789828"/>
    <poly id="232945776" type="building.yes" color="255,230,230" fill="1" layer="-1.00" shape="1050.138436,1340.678970 1062.627474,1340.635430 1062.038601,1320.102554 1049.820090,1320.910221 1050.138436,1340.678970"/>
    <poly id="233256023" type="building.yes" color="255,230,230" fill="1" layer="-1.00" shape="1052.043458,1264.442505 1065.751950,1264.394720 1065.513639,1251.677645 1052.000431,1252.101741 1052.043458,1264.442505"/>
    <poly id="233256024" type="building.yes" color="255,230,230" fill="1" layer="-1.00" shape="1156.073738,1265.943147 1165.275624,1266.288160 1165.420115,1254.700728 1186.269890,1254.816802 1186.569936,1234.813059 1161.968359,1234.333030 1162.629748,1206.677331 1145.724970,1206.736087 1145.821109,1234.389154 1116.342791,1234.125782 1115.388175,1230.569865 1111.825100,1231.336247 1112.214259,1234.328645 1109.582828,1234.703706 1110.030529,1254.516355 1146.083328,1254.013953 1151.526859,1254.749011 1152.283540,1257.174647 1156.608671,1257.725100 1156.073738,1265.943147"/>
    <poly id="233256025" type="building.yes" color="255,230,230" fill="1" layer="-1.00" shape="1236.864413,1356.040755 1218.084048,1355.917392 1216.183575,1348.639188 1216.488377,1327.327047 1225.873642,1327.294491 1228.320755,1329.714270 1228.174266,1340.747311 1226.309446,1343.747531 1238.142620,1343.706498 1238.723429,1351.366273 1236.848229,1351.372774 1236.864413,1356.040755"/>
    <poly id="233256026" type="building.yes" color="255,230,230" fill="1" layer="-1.00" shape="1256.525485,1338.409259 1258.964826,1338.589302 1259.175468,1346.061866 1264.065305,1346.976314 1264.240989,1344.358944 1272.693254,1344.329667 1274.547759,1338.346828 1274.313168,1323.955453 1256.844461,1323.827471 1256.525485,1338.409259"/>
    <poly id="233256027" type="amenity.clinic" color="237,199,199" fill="1" layer="-2.00" shape="1308.896683,1280.659189 1335.371389,1280.567637 1335.138806,1266.730655 1334.360211,1257.951674 1309.013073,1258.227823 1308.896683,1280.659189"/>
    <poly id="233256027#1" type="building.yes" color="255,230,230" fill="1" layer="-1.00" shape="1308.896683,1280.659189 1335.371389,1280.567637 1335.138806,1266.730655 1334.360211,1257.951674 1309.013073,1258.227823 1308.896683,1280.659189"/>
    <poly id="233256028" type="building.yes" color="255,230,230" fill="1" layer="-1.00" shape="1373.788875,1365.668146 1404.955954,1365.560586 1405.286958,1351.721657 1372.990300,1351.090222 1373.788875,1365.668146"/>
    <poly id="233256029" type="building.yes" color="255,230,230" fill="1" layer="-1.00" shape="1457.827865,1340.330632 1468.155984,1340.483565 1468.046283,1364.966180 1421.102327,1365.316409 1421.352160,1327.926912 1424.548322,1327.915894 1424.536091,1324.367786 1436.174650,1324.139175 1435.644025,1333.676658 1433.404262,1337.798013 1429.643969,1337.622478 1430.274448,1357.057516 1443.613304,1357.011550 1444.353171,1354.580736 1449.230538,1354.563933 1449.238253,1356.803676 1459.382255,1357.145729 1459.522598,1344.249937 1457.277249,1344.069174 1457.827865,1340.330632"/>
    <poly id="233256031" type="building.yes" color="255,230,230" fill="1" layer="-1.00" shape="1393.510734,1258.501372 1413.415664,1257.867224 1413.080744,1270.575191 1410.267813,1271.893272 1396.181897,1272.318853 1396.547093,1268.392452 1393.727086,1267.659288 1393.510734,1258.501372"/>
    <poly id="233256032" type="amenity.fast_food" color="237,199,199" fill="1" layer="-1.00" shape="1512.626123,1278.836699 1523.333046,1278.988391 1523.460598,1262.344913 1515.204193,1262.938779 1512.388043,1263.325451 1512.626123,1278.836699"/>
    <poly id="233256032#1" type="building.yes" color="255,230,230" fill="1" layer="-1.00" shape="1512.626123,1278.836699 1523.333046,1278.988391 1523.460598,1262.344913 1515.204193,1262.938779 1512.388043,1263.325451 1512.626123,1278.836699"/>
    <poly id="233256033" type="building.yes" color="255,230,230" fill="1" layer="-1.00" shape="1527.699218,1291.491701 1546.664450,1291.615044 1552.667529,1291.217438 1554.911200,1288.215983 1567.491421,1287.806894 1568.229384,1284.810610 1588.138146,1285.307789 1590.024882,1288.660972 1595.095624,1288.455086 1597.714206,1284.332471 1595.818881,1281.167811 1593.755685,1280.232410 1594.081609,1267.524482 1596.886240,1263.778220 1528.725988,1262.326819 1528.743324,1267.371784 1527.699218,1291.491701"/>
    <poly id="233256034" type="building.yes" color="255,230,230" fill="1" layer="-1.00" shape="1654.634225,1291.799249 1655.671025,1265.450693 1609.472880,1265.231943 1609.529889,1281.863698 1608.043029,1284.674050 1609.552313,1288.405521 1612.938369,1289.890791 1617.059209,1287.448403 1618.179763,1285.570697 1620.820164,1287.812506 1624.201698,1287.978327 1624.212601,1291.160536 1654.634225,1291.799249"/>
    <poly id="233256430" type="amenity.parking" color="184,184,179" fill="1" layer="-1.00" shape="1528.725988,1262.326819 1655.671025,1265.450693 1654.887383,1233.520034 1647.812290,1233.799278 1648.048620,1227.278745 1651.197755,1227.012941 1651.673117,1214.759112 1647.220608,1214.774355 1647.984392,1208.518128 1545.057499,1208.349932 1544.554513,1212.520735 1528.046966,1212.577444 1528.725988,1262.326819"/>
    <poly id="233256431" type="building.yes" color="255,230,230" fill="1" layer="-1.00" shape="1564.637403,1341.748565 1564.853121,1329.240597 1579.262648,1328.925036 1579.302021,1340.400947 1579.364639,1358.651528 1573.858216,1358.404311 1574.357926,1350.585578 1570.163215,1350.333862 1570.919782,1341.993114 1564.637403,1341.748565"/>
    <poly id="233256432" type="building.yes" color="255,230,230" fill="1" layer="-1.00" shape="1579.364639,1358.651528 1593.240138,1358.858954 1592.917111,1340.088133 1579.302021,1340.400947 1579.364639,1358.651528"/>
    <poly id="233256433" type="building.yes" color="255,230,230" fill="1" layer="-1.00" shape="1597.592471,1329.649410 1617.498287,1329.315062 1617.057514,1354.342115 1613.390251,1354.354683 1613.895352,1348.099338 1600.799358,1348.931478 1600.790423,1346.325836 1598.432176,1345.546676 1597.592471,1329.649410"/>
    <poly id="233256434" type="building.yes" color="255,230,230" fill="1" layer="-1.00" shape="1628.031647,1346.232472 1618.599304,1345.998679 1617.498287,1329.315062 1628.501015,1329.543473 1628.031647,1346.232472"/>
    <poly id="233256435" type="building.yes" color="255,230,230" fill="1" layer="-1.00" shape="1669.172474,1353.387501 1668.833551,1329.926523 1654.426681,1331.018097 1654.251001,1355.256994 1660.541694,1355.235462 1660.531904,1352.374800 1669.172474,1353.387501"/>
    <poly id="233256436" type="amenity.fast_food" color="237,199,199" fill="1" layer="-1.00" shape="1850.926507,1352.246237 1865.466270,1352.207867 1865.147631,1340.001102 1850.950351,1340.248978 1850.926507,1352.246237"/>
    <poly id="233256436#1" type="building.yes" color="255,230,230" fill="1" layer="-1.00" shape="1850.926507,1352.246237 1865.466270,1352.207867 1865.147631,1340.001102 1850.950351,1340.248978 1850.926507,1352.246237"/>
    <poly id="233256521" type="building.yes" color="255,230,230" fill="1" layer="-1.00" shape="1895.765393,1368.515061 1921.436184,1368.427877 1921.934019,1362.693709 1929.525415,1362.146807 1929.420985,1331.378062 1922.882635,1331.921390 1922.605037,1329.061638 1912.128855,1328.831096 1911.623079,1332.225731 1896.168816,1332.278224 1895.765393,1368.515061"/>
    <poly id="233256521#1" type="shop.car_parts" color="237,199,255" fill="1" layer="-1.00" shape="1895.765393,1368.515061 1921.436184,1368.427877 1921.934019,1362.693709 1929.525415,1362.146807 1929.420985,1331.378062 1922.882635,1331.921390 1922.605037,1329.061638 1912.128855,1328.831096 1911.623079,1332.225731 1896.168816,1332.278224 1895.765393,1368.515061"/>
    <poly id="233256522" type="building.yes" color="255,230,230" fill="1" layer="-1.00" shape="2035.066961,1360.225780 2044.231351,1360.449806 2043.887207,1335.170416 2035.766587,1334.931772 2035.066961,1360.225780"/>
    <poly id="233256523" type="building.yes" color="255,230,230" fill="1" layer="-1.00" shape="1967.797314,1362.382891 1968.371251,1332.764996 1974.293813,1333.144087 1974.436741,1337.157445 1984.809947,1336.989238 1984.817686,1339.273332 1995.855987,1339.102883 1995.612587,1346.333059 1988.739930,1346.356340 1988.373146,1355.338832 1991.329125,1355.328818 1991.360450,1364.576073 1982.344274,1364.473565 1982.337022,1362.333612 1967.797314,1362.382891"/>
    <poly id="233256524" type="building.yes" color="255,230,230" fill="1" layer="-1.00" shape="2110.011476,1393.192081 2147.929488,1392.620665 2147.280704,1331.694506 2111.133794,1331.594667 2110.011476,1393.192081"/>
    <poly id="233256525" type="building.yes" color="255,230,230" fill="1" layer="-1.00" shape="2057.575669,1362.023528 2067.994736,1361.766553 2066.784023,1331.522685 2057.249507,1331.122481 2057.575669,1362.023528"/>
    <poly id="233256526" type="building.yes" color="255,230,230" fill="1" layer="-1.00" shape="2071.880138,1330.629515 2082.529427,1330.150019 2082.196368,1362.816278 2074.869629,1362.408600 2075.274964,1351.141861 2071.061944,1350.934337 2071.880138,1330.629515"/>
    <poly id="233257072" type="building.yes" color="255,230,230" fill="1" layer="-1.00" shape="2099.893130,1285.506692 2113.635537,1284.573272 2113.502125,1277.887682 2113.367665,1270.891633 2116.256014,1269.994850 2116.712583,1208.189023 2096.972633,1208.477408 2096.739391,1270.726001 2100.288094,1271.157538 2100.098876,1278.043801 2099.893130,1285.506692"/>
    <poly id="233257073" type="building.yes" color="255,230,230" fill="1" layer="-1.00" shape="2102.506981,1206.030461 2167.705803,1205.810601 2167.277266,1210.225052 2171.488852,1209.989106 2171.697931,1206.240672 2178.570688,1206.217525 2178.947181,1186.346636 2125.509182,1186.970258 2125.489808,1181.226761 2121.942569,1181.238727 2121.963404,1187.414649 2102.222662,1187.481266 2102.506981,1206.030461"/>
    <poly id="233257074" type="building.yes" color="255,230,230" fill="1" layer="-1.00" shape="2206.050137,1199.937946 2226.678405,1200.090320 2225.593898,1273.163610 2205.410681,1273.453261 2204.651226,1245.414369 2187.576559,1244.374130 2187.544606,1234.882945 2199.737424,1234.620145 2199.893751,1215.193516 2205.655009,1214.287093 2206.050137,1199.937946"/>
    <poly id="233257074#1" type="tourism.hotel" color="207,245,201" fill="1" layer="-2.00" shape="2206.050137,1199.937946 2226.678405,1200.090320 2225.593898,1273.163610 2205.410681,1273.453261 2204.651226,1245.414369 2187.576559,1244.374130 2187.544606,1234.882945 2199.737424,1234.620145 2199.893751,1215.193516 2205.655009,1214.287093 2206.050137,1199.937946"/>
    <poly id="233257075" type="building.yes" color="255,230,230" fill="1" layer="-1.00" shape="2248.083442,1236.220552 2251.860108,1235.764344 2251.646232,1240.843347 2252.568239,1248.568556 2250.354585,1252.323723 2246.806628,1252.113886 2245.713699,1256.752325 2233.744101,1257.457834 2233.928713,1246.424695 2243.675392,1243.963671 2244.108397,1240.868676 2247.654868,1240.634999 2248.083442,1236.220552"/>
    <poly id="233257076" type="building.yes" color="255,230,230" fill="1" layer="-1.00" shape="2289.669135,1202.528747 2388.787621,1201.974882 2389.057321,1216.321794 2376.656802,1220.776293 2372.444474,1220.790391 2372.486596,1233.375080 2369.170691,1236.257960 2354.528438,1236.085226 2350.746929,1232.339074 2351.373596,1220.860941 2302.146631,1221.025946 2289.272392,1216.434376 2289.669135,1202.528747"/>
    <poly id="233257077" type="building.yes" color="255,230,230" fill="1" layer="-1.00" shape="2288.562160,1266.299303 2319.802774,1265.994928 2319.999125,1285.985857 2315.389725,1286.034576 2315.444521,1291.356612 2305.061840,1291.469048 2305.020589,1287.433170 2291.487954,1287.567276 2291.445358,1283.132236 2288.729608,1283.163525 2288.562160,1266.299303"/>
    <poly id="233257078" type="building.yes" color="255,230,230" fill="1" layer="-1.00" shape="2349.806073,1263.089129 2337.001644,1262.766125 2337.091999,1259.406171 2332.888517,1259.298290 2333.133203,1249.617683 2336.283536,1249.706918 2336.372888,1246.047592 2350.221256,1246.389276 2349.806073,1263.089129"/>
    <poly id="233257079" type="building.yes" color="255,230,230" fill="1" layer="-1.00" shape="2401.190541,1261.764007 2388.821240,1261.727764 2389.070395,1258.888413 2383.832237,1258.761795 2384.026818,1250.655848 2384.024258,1238.847183 2390.444462,1238.858968 2390.438262,1245.290003 2401.227928,1245.320443 2401.190541,1261.764007"/>
    <poly id="233257080" type="building.yes" color="255,230,230" fill="1" layer="-1.00" shape="2405.015799,1212.298933 2438.058585,1212.188507 2437.800736,1201.367524 2404.978874,1201.255453 2405.015799,1212.298933"/>
    <poly id="233257081" type="amenity.fast_food" color="237,199,199" fill="1" layer="-1.00" shape="2436.369341,1251.279191 2423.491926,1251.233512 2423.403191,1277.201802 2435.319833,1277.239602 2435.365280,1263.191010 2441.822454,1263.213794 2441.839074,1257.126450 2436.351836,1257.100427 2436.369341,1251.279191"/>
    <poly id="233257081#1" type="building.yes" color="255,230,230" fill="1" layer="-1.00" shape="2436.369341,1251.279191 2423.491926,1251.233512 2423.403191,1277.201802 2435.319833,1277.239602 2435.365280,1263.191010 2441.822454,1263.213794 2441.839074,1257.126450 2436.351836,1257.100427 2436.369341,1251.279191"/>
    <poly id="233260723" type="building.yes" color="255,230,230" fill="1" layer="-1.00" shape="2219.690995,1361.033364 2221.806440,1361.048425 2221.741762,1366.537183 2227.718671,1366.605787 2227.766630,1361.638220 2230.020637,1361.652817 2230.238252,1341.205887 2237.637818,1341.291890 2237.827073,1323.395288 2220.099526,1323.199871 2219.690995,1361.033364"/>
    <poly id="233260724" type="building.yes" color="255,230,230" fill="1" layer="-1.00" shape="2286.742685,1332.456169 2314.340439,1331.243699 2320.549439,1334.405124 2320.614606,1353.842097 2287.762084,1355.449174 2286.742685,1332.456169"/>
    <poly id="233260726" type="building.yes" color="255,230,230" fill="1" layer="-1.00" shape="2392.372009,1362.194953 2405.895597,1362.149724 2406.163702,1329.062362 2392.261331,1329.108857 2392.372009,1362.194953"/>
    <poly id="233260727" type="building.yes" color="255,230,230" fill="1" layer="-1.00" shape="2408.607394,1330.551066 2416.863825,1329.969067 2418.046570,1401.925959 2458.792042,1401.601360 2458.453800,1355.620730 2466.711433,1355.404673 2467.429626,1401.761025 2467.456416,1409.788617 2409.621833,1410.170300 2408.607394,1330.551066"/>
    <poly id="233260728" type="building.yes" color="255,230,230" fill="1" layer="-1.00" shape="2442.864760,1356.792665 2443.191688,1341.279521 2441.685985,1341.284550 2441.846901,1331.382467 2426.826803,1331.432645 2427.249986,1347.497681 2429.319802,1347.679260 2429.157046,1357.026952 2442.864760,1356.792665"/>
    <poly id="233260729" type="building.yes" color="255,230,230" fill="1" layer="-1.00" shape="2457.242589,1330.388583 2467.005949,1330.167500 2467.417889,1342.884012 2457.285637,1343.283733 2457.242589,1330.388583"/>
    <poly id="233260730" type="building.yes" color="255,230,230" fill="1" layer="-1.00" shape="2490.198443,1415.134759 2489.945259,1397.383783 2498.212721,1397.356216 2498.270686,1414.741940 2490.198443,1415.134759"/>
    <poly id="233260731" type="building.yes" color="255,230,230" fill="1" layer="-1.00" shape="2476.093363,1409.759797 2469.893863,1409.414580 2469.260517,1330.348472 2476.955944,1330.511290 2476.977769,1337.053112 2474.908581,1337.060015 2474.580887,1349.590500 2476.834192,1349.394487 2476.855388,1355.747815 2474.039822,1356.311607 2474.059799,1362.299037 2477.246081,1362.099911 2476.705052,1368.832106 2474.267003,1369.028735 2474.124652,1381.736009 2477.504912,1381.536236 2476.965143,1388.645418 2476.093363,1409.759797"/>
    <poly id="233260732" type="building.yes" color="255,230,230" fill="1" layer="-1.00" shape="2489.558310,1392.151558 2498.758125,1391.932386 2498.179365,1331.937383 2496.104557,1330.258931 2491.411930,1330.274578 2491.235279,1332.703430 2489.360076,1332.709683 2489.201625,1343.365737 2492.582528,1343.354463 2492.613068,1352.513013 2489.426782,1352.712134 2489.072970,1360.186597 2491.696399,1360.177848 2491.537237,1367.851245 2489.283899,1368.036167 2488.930007,1372.716465 2491.738180,1372.707100 2491.593327,1384.671489 2489.154654,1384.679621 2489.558310,1392.151558"/>
    <poly id="233260733" type="amenity.restaurant" color="237,199,199" fill="1" layer="-1.00" shape="2510.056774,1345.170075 2522.638166,1345.128153 2522.394978,1330.359806 2509.628189,1330.213850 2510.056774,1345.170075"/>
    <poly id="233260733#1" type="building.yes" color="255,230,230" fill="1" layer="-1.00" shape="2510.056774,1345.170075 2522.638166,1345.128153 2522.394978,1330.359806 2509.628189,1330.213850 2510.056774,1345.170075"/>
    <poly id="233260734" type="building.yes" color="255,230,230" fill="1" layer="-1.00" shape="2500.478178,1345.390498 2500.646700,1340.522323 2508.350136,1340.319238 2508.173593,1345.553342 2500.478178,1345.390498"/>
    <poly id="233260735" type="building.yes" color="255,230,230" fill="1" layer="-1.00" shape="2507.578955,1336.208176 2507.562732,1331.340618 2499.683813,1331.555377 2499.700632,1336.600341 2507.578955,1336.208176"/>
    <poly id="233260737" type="building.yes" color="255,230,230" fill="1" layer="-1.00" shape="2573.728709,1355.547086 2589.386740,1355.672427 2588.900534,1340.017851 2573.918027,1340.256165 2573.728709,1355.547086"/>
    <poly id="233260738" type="building.yes" color="255,230,230" fill="1" layer="-1.00" shape="2590.488215,1423.028098 2602.506023,1422.988155 2603.092493,1429.905090 2601.217937,1430.099815 2601.813066,1439.622392 2648.193156,1439.279883 2647.819328,1429.623514 2647.576990,1423.403975 2657.342721,1423.925972 2657.361994,1429.735997 2657.427060,1449.350375 2591.139307,1449.382007 2590.488215,1423.028098"/>
    <poly id="233261489" type="building.yes" color="255,230,230" fill="1" layer="-1.00" shape="2622.976256,1345.104882 2625.585794,1329.783751 2649.081159,1333.852659 2646.613202,1347.310537 2633.155692,1345.004556 2632.569686,1346.569903 2622.976256,1345.104882"/>
    <poly id="233261490" type="building.retail" color="255,230,230" fill="1" layer="-1.00" shape="2617.673403,1406.139511 2639.843112,1406.065902 2640.033307,1396.573981 2641.799562,1394.361616 2640.680845,1391.282877 2640.205213,1381.571407 2616.260392,1381.207392 2616.084141,1394.890515 2618.303325,1395.548421 2617.673403,1406.139511"/>
    <poly id="233261494" type="building.yes" color="255,230,230" fill="1" layer="-1.00" shape="2704.111359,1393.057309 2698.994761,1387.774216 2698.461409,1360.621582 2702.222234,1358.180862 2697.771446,1353.117323 2702.630556,1347.590514 2699.296300,1344.951538 2702.172541,1343.179025 2700.832837,1340.311683 2710.777845,1330.787456 2713.001405,1332.764837 2714.323557,1330.332197 2717.861966,1327.670461 2726.737691,1327.197562 2728.962717,1329.618459 2736.721444,1329.371025 2739.152097,1326.934721 2742.699280,1326.922986 2744.704070,1329.788134 2748.693916,1329.553178 2748.353461,1360.678188 2742.582744,1358.712534 2737.704650,1358.506913 2733.478515,1354.329651 2727.934590,1353.904480 2725.045943,1351.929297 2721.287312,1355.035278 2721.754090,1362.096760 2723.980540,1364.950082 2732.401433,1363.824504 2738.842342,1367.329160 2735.758309,1373.304684 2736.008477,1381.908108 2730.273585,1390.764186 2726.509096,1392.096112 2719.190145,1391.233303 2706.764420,1390.842019 2704.111359,1393.057309"/>