<?xml version="1.0" encoding="UTF-8"?>

<!-- generated on 2022-07-07 02:54:41 by Eclipse SUMO duarouter Version 1.12.0
<configuration xmlns:xsi="http://www.w3.org/2001/XMLSchema-instance" xsi:noNamespaceSchemaLocation="http://sumo.dlr.de/xsd/duarouterConfiguration.xsd">

    <input>
        <net-file value="ChicagoAve.net.xml"/>
        <additional-files value="ped.add.xml,busStop6.add.xml"/>
        <route-files value="trips.trips.xml"/>
    </input>

    <output>
        <output-file value="peds_dist.rou.xml"/>
        <alternatives-output value="peds_dist.rou.alt.xml"/>
    </output>

    <time>
        <begin value="0"/>
        <end value="3600.0"/>
    </time>

    <report>
        <no-warnings value="true"/>
        <ignore-errors value="true"/>
        <no-step-log value="true"/>
    </report>

</configuration>
-->

<routes xmlns:xsi="http://www.w3.org/2001/XMLSchema-instance" xsi:noNamespaceSchemaLocation="http://sumo.dlr.de/xsd/routes_file.xsd">
    <vType id="adult" length="0.20" minGap="0.30" maxSpeed="1.30" vClass="pedestrian" width="0.50"/>
    <person id="0" type="adult" depart="0.00">
        <walk edges="-7123182#2 -7123182#6 -7123182#13 474689217 -626283217#4 626093615#0 626093615#2 626284343#0 475159103#0" busStop="bs_6"/>
        <ride from="475159103#0" to="7328604#11" lines="taxi"/>
    </person>
    <person id="1" type="adult" depart="15.00">
        <walk edges="-7276324#3 -7123182#13 474689217 -626283217#4 626093615#0 626093615#2 626284343#0 626283153#0" busStop="bs_2"/>
        <ride from="626283153#0" to="514518466#1" lines="taxi"/>
    </person>
    <person id="2" type="adult" depart="30.00">
        <walk edges="7098383#4 -7276260#6 -7276260#4 -7276260#2 474688712#0" busStop="bs_0"/>
        <ride from="474688712#0" to="7276260#8" lines="taxi"/>
    </person>
    <person id="3" type="adult" depart="45.00">
        <walk edges="-474688713#4 474688711 626283153#0" busStop="bs_2"/>
        <ride from="626283153#0" to="7288838#0" lines="taxi"/>
    </person>
    <person id="4" type="adult" depart="60.00">
        <walk edges="7276260#0 474688711 626283153#0" busStop="bs_2"/>
        <ride from="626283153#0" to="-125135491#1" lines="taxi"/>
    </person>
    <person id="5" type="adult" depart="75.00">
        <walk edges="7142812#1 626288022 626288020#2 626288020#0 626283151#0 704059434 626284345#4 626284345#0 474688711" busStop="bs_7"/>
        <ride from="474688711" to="-7276260#8" lines="taxi"/>
    </person>
    <person id="6" type="adult" depart="90.00">
        <walk edges="80565710#2 -80565710#1 -474688714 -474688713#1 -474688713#3 -474688713#4 474688712#0" busStop="bs_0"/>
        <ride from="474688712#0" to="-474689216" lines="taxi"/>
    </person>
    <person id="7" type="adult" depart="105.00">
        <walk edges="626283158 626288019 626288024#1 626288024#0 626288022 626288020#2 626288020#0 626283151#0 626283151#1 626283153#0" busStop="bs_2"/>
        <ride from="626283153#0" to="80565714#5" lines="taxi"/>
    </person>
    <person id="8" type="adult" depart="120.00">
        <walk edges="-7276260#4 -7276260#2 474688712#0" busStop="bs_0"/>
        <ride from="474688712#0" to="-80798172#4" lines="taxi"/>
    </person>
    <person id="9" type="adult" depart="135.00">
        <walk edges="-7276260#6 -80798171#5 626283151#0 626283151#1 626283153#0" busStop="bs_2"/>
        <ride from="626283153#0" to="125135491#8" lines="taxi"/>
    </person>
    <person id="10" type="adult" depart="150.00">
        <walk edges="-7276260#8 80565462#8 626288019 626288024#1 626288024#0 626288022 626288020#2 626288020#0 626283151#0 704059434 626284345#4 626284345#0" busStop="bs_1"/>
        <ride from="626284345#0" to="-7276260#8" lines="taxi"/>
    </person>
    <person id="11" type="adult" depart="165.00">
        <walk edges="474688713#4 474688712#0" busStop="bs_0"/>
        <ride from="474688712#0" to="-7328604#13" lines="taxi"/>
    </person>
    <person id="12" type="adult" depart="180.00">
        <walk edges="7288838#0 -7328604#2 475159105#1 125135481#0 475159095 475159096#0 475159103#0" busStop="bs_6"/>
        <ride from="475159103#0" to="626284345#0" lines="taxi"/>
    </person>
    <person id="13" type="adult" depart="195.00">
        <walk edges="-7198375#6 -80565714#12 -474688707 -474688714 -474688713#1 -474688713#3 -474688713#4 474688711" busStop="bs_7"/>
        <ride from="474688711" to="973970332#0" lines="taxi"/>
    </person>
    <person id="14" type="adult" depart="210.00">
        <walk edges="-7123182#13 474689217 -626283217#4 626093615#0 626093615#2 626284343#0 475159103#0" busStop="bs_6"/>
        <ride from="475159103#0" to="-80565710#13" lines="taxi"/>
    </person>
    <person id="15" type="adult" depart="225.00">
        <walk edges="7142807#0 -7142807#3 -7142807#5 626288024#0 626288022 626288020#2 626288020#0 626283151#0 626283151#1 626283153#0" busStop="bs_2"/>
        <ride from="626283153#0" to="80565714#5" lines="taxi"/>
    </person>
    <person id="16" type="adult" depart="240.00">
        <walk edges="7281814#0 7142812#1 626288022 626288020#2 626288020#0 626283151#0 704059434 626284345#4 626284345#0" busStop="bs_1"/>
        <ride from="626284345#0" to="7102287#0" lines="taxi"/>
    </person>
    <person id="17" type="adult" depart="255.00">
        <walk edges="626799488#0 626091617#1 650708094#0 -474689218#8 -474689216 474689217 -626283217#4 626093615#0 626093615#2 626284343#0 474688711" busStop="bs_7"/>
        <ride from="474688711" to="80565462#8" lines="taxi"/>
    </person>
    <person id="18" type="adult" depart="270.00">
        <walk edges="626091626#0 -474689218#8 -474689216 474689217 -626283217#4 626093615#0 626093615#2 626284343#0 474688712#0" busStop="bs_0"/>
        <ride from="474688712#0" to="626799488#0" lines="taxi"/>
    </person>
    <person id="19" type="adult" depart="285.00">
        <walk edges="-7276317#7 -7123182#6 -7123182#13 474689217 -626283217#4 626093615#0 626093615#2 626284343#0 626283153#0" busStop="bs_2"/>
        <ride from="626283153#0" to="7276317#0" lines="taxi"/>
    </person>
    <person id="20" type="adult" depart="300.00">
        <walk edges="-7142812#4 7142812#1 626288022 626288020#2 626288020#0 626283151#0 704059434 626284345#4 626284345#0 475159103#0" busStop="bs_6"/>
        <ride from="475159103#0" to="626283217#0" lines="taxi"/>
    </person>
    <person id="21" type="adult" depart="315.00">
        <walk edges="7123182#0 -7123182#2 -7123182#6 -7123182#13 474689217 -626283217#4 626093615#0 626093615#2 626284343#0 626283153#0" busStop="bs_2"/>
        <ride from="626283153#0" to="-80565714#9" lines="taxi"/>
    </person>
    <person id="22" type="adult" depart="330.00">
        <walk edges="626093615#2 626284343#0 626283153#0" busStop="bs_2"/>
        <ride from="626283153#0" to="7276260#5" lines="taxi"/>
    </person>
    <person id="23" type="adult" depart="345.00">
        <walk edges="-80798171#2 -7276260#4 -7276260#2 474688712#0" busStop="bs_0"/>
        <ride from="474688712#0" to="475159104#0" lines="taxi"/>
    </person>
    <person id="24" type="adult" depart="360.00">
        <walk edges="-514518467#1 626288019 626288024#1 626288024#0 626288022 626288020#2 626288020#0 626283151#0 704059434 626284345#4 626284345#0 474688711" busStop="bs_7"/>
        <ride from="474688711" to="7127213#0" lines="taxi"/>
    </person>
    <person id="25" type="adult" depart="375.00">
        <walk edges="626800306#0 626091617#1 650708094#0 -474689218#8 -474689216 474689217 -626283217#4 626093615#0 626093615#2 626284343#0 474688712#0" busStop="bs_0"/>
        <ride from="474688712#0" to="-80798171#2" lines="taxi"/>
    </person>
    <person id="26" type="adult" depart="390.00">
        <walk edges="626091619#0 626112459#0 626112463#0 626091626#1 626091626#0 -474689218#8 -474689216 474689217 -626283217#4 626093615#0 626093615#2 626284343#0 475159103#0" busStop="bs_6"/>
        <ride from="475159103#0" to="80798172#4" lines="taxi"/>
    </person>
    <person id="27" type="adult" depart="405.00">
        <walk edges="626283155#2 626283154 626283151#0 704059434 626284345#4 626284345#0" busStop="bs_1"/>
        <ride from="626284345#0" to="7328604#3" lines="taxi"/>
    </person>
    <person id="28" type="adult" depart="420.00">
        <walk edges="626282455#0 475159102#1" busStop="bs_3"/>
        <ride from="475159102#1" to="80798171#11" lines="taxi"/>
    </person>
    <person id="29" type="adult" depart="435.00">
        <walk edges="474688713#4 474688711 626283153#0" busStop="bs_2"/>
        <ride from="626283153#0" to="-7281814#2" lines="taxi"/>
    </person>
    <person id="30" type="adult" depart="450.00">
        <walk edges="80798171#3 -80798171#5 626283151#0 704059434 626284345#4 626284345#0 475159103#0" busStop="bs_6"/>
        <ride from="475159103#0" to="-125135491#4" lines="taxi"/>
    </person>
    <person id="31" type="adult" depart="465.00">
        <walk edges="7281810#0 -7288838#1 -7328604#2 475159105#1 125135481#0 475159095 475159096#0 475159103#0" busStop="bs_6"/>
        <ride from="475159103#0" to="80565710#0" lines="taxi"/>
    </person>
    <person id="32" type="adult" depart="480.00">
        <walk edges="7276324#0 -7123182#13 474689217 -626283217#4 626093615#0 626093615#2 626284343#0 475159102#1" busStop="bs_3"/>
        <ride from="475159102#1" to="626283151#0" lines="taxi"/>
    </person>
    <person id="33" type="adult" depart="495.00">
        <walk edges="125135481#0 475159095 475159096#0 475159103#0 474688711" busStop="bs_7"/>
        <ride from="474688711" to="-626799488#6" lines="taxi"/>
    </person>
    <person id="34" type="adult" depart="510.00">
        <walk edges="626288019 626288024#1 626288024#0 626288022 626288020#2 626288020#0 626283151#0 626283151#1 626283153#0" busStop="bs_2"/>
        <ride from="626283153#0" to="-7247663#1" lines="taxi"/>
    </person>
    <person id="35" type="adult" depart="525.00">
        <walk edges="475159104#0 475159101 475159102#1 626284345#0" busStop="bs_1"/>
        <ride from="626284345#0" to="-80565714#12" lines="taxi"/>
    </person>
    <person id="36" type="adult" depart="540.00">
        <walk edges="626283155#0 626288022 626288020#2 626288020#0 626283151#0 704059434 626284345#4 626284345#0 626284343#0 626093615#2 626093615#0 626283217#0" busStop="bs_5"/>
        <ride from="626283217#0" to="7078477#0" lines="taxi"/>
    </person>
    <person id="37" type="adult" depart="555.00">
        <walk edges="474688713#4 474688711 626284345#0" busStop="bs_1"/>
        <ride from="626284345#0" to="-474688713#4" lines="taxi"/>
    </person>
    <person id="38" type="adult" depart="570.00">
        <walk edges="-7142812#6 -7328604#11 -7328604#10 -7328604#7 -80798171#12 -80798171#10 -80798171#9 80798171#7 626283151#0 704059434 626284345#4 626284345#0 474688711" busStop="bs_7"/>
        <ride from="474688711" to="626799488#0" lines="taxi"/>
    </person>
    <person id="39" type="adult" depart="585.00">
        <walk edges="7276317#0 -7198375#1 -7276267#3 -474688713#4 474688711" busStop="bs_7"/>
        <ride from="474688711" to="7276317#0" lines="taxi"/>
    </person>
    <person id="40" type="adult" depart="600.00">
        <walk edges="-7276324#3 -7123182#13 474689217 -626283217#4 626093615#0 626093615#2 626284343#0 475159103#0" busStop="bs_6"/>
        <ride from="475159103#0" to="7328604#0" lines="taxi"/>
    </person>
    <person id="41" type="adult" depart="615.00">
        <walk edges="-7098383#1 7098383#2 -7276260#6 -7276260#4 -7276260#2 474688712#0" busStop="bs_0"/>
        <ride from="474688712#0" to="-474688705#1" lines="taxi"/>
    </person>
    <person id="42" type="adult" depart="630.00">
        <walk edges="7247663#0 80798171#0 -7276260#4 -7276260#2 474688712#0" busStop="bs_0"/>
        <ride from="474688712#0" to="-7276317#7" lines="taxi"/>
    </person>
    <person id="43" type="adult" depart="645.00">
        <walk edges="7078477#0 80798171#0 -7276260#4 -7276260#2 474688712#0" busStop="bs_0"/>
        <ride from="474688712#0" to="-80565710#3" lines="taxi"/>
    </person>
    <person id="44" type="adult" depart="660.00">
        <walk edges="-7142807#5 626288024#0 626288022 626288020#2 626288020#0 626283151#0 704059434 626284345#4 626284345#0 474688712#0" busStop="bs_0"/>
        <ride from="474688712#0" to="626283151#1" lines="taxi"/>
    </person>
    <person id="45" type="adult" depart="675.00">
        <walk edges="-7281814#2 -125135491#7 -125135491#4 514518466#1 626288019 626288024#1 626288024#0 626288022 626288020#2 626288020#0 626283151#0 626283151#1 626283153#0" busStop="bs_2"/>
        <ride from="626283153#0" to="7142807#0" lines="taxi"/>
    </person>
    <person id="46" type="adult" depart="690.00">
        <walk edges="-80565462#4 80565462#5 -7276260#8 -7276260#7 -7276260#6 -7276260#4 -7276260#2 474688712#0" busStop="bs_0"/>
        <ride from="474688712#0" to="475159096#0" lines="taxi"/>
    </person>
    <person id="47" type="adult" depart="705.00">
        <walk edges="-80798171#10 -80798171#9 80798171#7 626283151#0 704059434 626284345#4 626284345#0" busStop="bs_1"/>
        <ride from="626284345#0" to="-80798172#4" lines="taxi"/>
    </person>
    <person id="48" type="adult" depart="720.00">
        <walk edges="-7098388#2 -7328604#7 -80798171#12 -80798171#10 -80798171#9 80798171#7 626283151#0 626283151#1 626283153#0" busStop="bs_2"/>
        <ride from="626283153#0" to="80565710#14" lines="taxi"/>
    </person>
    <person id="49" type="adult" depart="735.00">
        <walk edges="-7276260#2 474688711" busStop="bs_7"/>
        <ride from="474688711" to="626800306#0" lines="taxi"/>
    </person>
    <person id="50" type="adult" depart="750.00">
        <walk edges="-474688713#1 -474688713#3 -474688713#4 474688712#0" busStop="bs_0"/>
        <ride from="474688712#0" to="-474688706" lines="taxi"/>
    </person>
    <person id="51" type="adult" depart="765.00">
        <walk edges="7142807#4 626288024#0 626288022 626288020#2 626288020#0 626283151#0 704059434 626284345#4 626284345#0 475159103#0" busStop="bs_6"/>
        <ride from="475159103#0" to="-7142807#5" lines="taxi"/>
    </person>
    <person id="52" type="adult" depart="780.00">
        <walk edges="7123182#0 -7123182#2 -7123182#6 -7123182#13 474689217 -626283217#4 626093615#0 626093615#2 626284343#0 626284345#0" busStop="bs_1"/>
        <ride from="626284345#0" to="626283158" lines="taxi"/>
    </person>
    <person id="53" type="adult" depart="795.00">
        <walk edges="80798172#2 7098383#2 -7276260#6 -80798171#5 626283151#0 626283151#1 626283153#0" busStop="bs_2"/>
        <ride from="626283153#0" to="7276317#0" lines="taxi"/>
    </person>
    <person id="54" type="adult" depart="810.00">
        <walk edges="-7276260#7 -7142807#5 626288024#0 626288022 626288020#2 626288020#0 626283151#0 626283151#1 626283153#0" busStop="bs_2"/>
        <ride from="626283153#0" to="7098383#4" lines="taxi"/>
    </person>
    <person id="55" type="adult" depart="825.00">
        <walk edges="626288022 626288020#2 626288020#0 626283151#0 704059434 626284345#4 626284345#0 475159103#0" busStop="bs_6"/>
        <ride from="475159103#0" to="-80565462#4" lines="taxi"/>
    </person>
    <person id="56" type="adult" depart="840.00">
        <walk edges="-626799488#6 626091617#1 650708094#0 -474689218#8 -474689216 474689217 -626283217#4 626093615#0 626093615#2 626284343#0 474688711" busStop="bs_7"/>
        <ride from="474688711" to="-7328604#2" lines="taxi"/>
    </person>
    <person id="57" type="adult" depart="855.00">
        <walk edges="80565462#2 -80565710#18 80565710#11 -80565710#10 -80565710#7 -7247663#1 80798171#0 -7276260#4 -7276260#2 474688711" busStop="bs_7"/>
        <ride from="474688711" to="-7328604#5" lines="taxi"/>
    </person>
    <person id="58" type="adult" depart="870.00">
        <walk edges="-7328604#7 -7328604#5 -7328604#2 475159105#1 125135481#0 475159095 475159096#0 475159103#0" busStop="bs_6"/>
        <ride from="475159103#0" to="80565714#5" lines="taxi"/>
    </person>
    <person id="59" type="adult" depart="885.00">
        <walk edges="-80798172#3 -7142807#3 -7276260#7 -7276260#6 -7276260#4 -7276260#2 474688712#0" busStop="bs_0"/>
        <ride from="474688712#0" to="-7276324#3" lines="taxi"/>
    </person>
    <person id="60" type="adult" depart="900.00">
        <walk edges="80565462#5 -7276260#8 -7276260#7 -7276260#6 -7276260#4 -7276260#2 474688711" busStop="bs_7"/>
        <ride from="474688711" to="-474689218#8" lines="taxi"/>
    </person>
    <person id="61" type="adult" depart="915.00">
        <walk edges="80798171#7 626283151#0 704059434 626284345#4 626284345#0 474688712#0" busStop="bs_0"/>
        <ride from="474688712#0" to="626288020#0" lines="taxi"/>
    </person>
    <person id="62" type="adult" depart="930.00">
        <walk edges="7328604#9 -7328604#7 -7328604#5 -7328604#2 475159105#1 125135481#0 475159095 475159096#0 475159103#0" busStop="bs_6"/>
        <ride from="475159103#0" to="80798172#2" lines="taxi"/>
    </person>
    <person id="63" type="adult" depart="945.00">
        <walk edges="626093615#2 626284343#0 626284345#0" busStop="bs_1"/>
        <ride from="626284345#0" to="-80565714#9" lines="taxi"/>
    </person>
    <person id="64" type="adult" depart="960.00">
        <walk edges="-7276260#2 474688711 626283153#0" busStop="bs_2"/>
        <ride from="626283153#0" to="7102287#0" lines="taxi"/>
    </person>
    <person id="65" type="adult" depart="975.00">
        <walk edges="-7237382#1 7123182#14 474689217 -626283217#4 626093615#0 626093615#2 626284343#0 475159103#0" busStop="bs_6"/>
        <ride from="475159103#0" to="-7098388#2" lines="taxi"/>
    </person>
    <person id="66" type="adult" depart="990.00">
        <walk edges="-7328604#2 475159105#1 125135481#0 475159095 475159096#0 475159103#0 626284345#0" busStop="bs_1"/>
        <ride from="626284345#0" to="626091617#1" lines="taxi"/>
    </person>
    <person id="67" type="adult" depart="1005.00">
        <walk edges="80565462#2 -80565710#18 80565710#11 -80565710#10 -80565710#7 -7247663#1 80798171#0 -7276260#4 -7276260#2 474688712#0" busStop="bs_0"/>
        <ride from="474688712#0" to="80565710#14" lines="taxi"/>
    </person>
    <person id="68" type="adult" depart="1020.00">
        <walk edges="-7247663#1 80798171#0 -7276260#4 -7276260#2 474688711" busStop="bs_7"/>
        <ride from="474688711" to="-80565710#1" lines="taxi"/>
    </person>
    <person id="69" type="adult" depart="1035.00">
        <walk edges="7276260#7 -7276260#6 -80798171#5 626283151#0 704059434 626284345#4 626284345#0" busStop="bs_1"/>
        <ride from="626284345#0" to="-80565710#18" lines="taxi"/>
    </person>
    <person id="70" type="adult" depart="1050.00">
        <walk edges="7123182#0 -80565714#9 -80565714#12 -474688707 -474688714 -474688713#1 -474688713#3 -474688713#4 474688711" busStop="bs_7"/>
        <ride from="474688711" to="7288838#0" lines="taxi"/>
    </person>
    <person id="71" type="adult" depart="1065.00">
        <walk edges="-80565710#3 -80565710#1 -474688714 -474688713#1 -474688713#3 -474688713#4 474688711 475159103#0" busStop="bs_6"/>
        <ride from="475159103#0" to="80565462#8" lines="taxi"/>
    </person>
    <person id="72" type="adult" depart="1080.00">
        <walk edges="475159104#0 475159101 475159102#1 626284345#0" busStop="bs_1"/>
        <ride from="626284345#0" to="973970332#0" lines="taxi"/>
    </person>
    <person id="73" type="adult" depart="1095.00">
        <walk edges="7142812#1 626288022 626288020#2 626288020#0 626283151#0 704059434 626284345#4 626284345#0 474688712#0" busStop="bs_0"/>
        <ride from="474688712#0" to="-7098383#1" lines="taxi"/>
    </person>
    <person id="74" type="adult" depart="1110.00">
        <walk edges="80565710#4 -80565710#3 -80565710#1 -474688714 -474688713#1 -474688713#3 -474688713#4 474688711 475159103#0" busStop="bs_6"/>
        <ride from="475159103#0" to="-7276260#4" lines="taxi"/>
    </person>
    <person id="75" type="adult" depart="1125.00">
        <walk edges="626800306#0 626091617#1 650708094#0 -474689218#8 -474689216 474689217 -626283217#4 626093615#0 626093615#2 626284343#0 626284345#0" busStop="bs_1"/>
        <ride from="626284345#0" to="7328604#0" lines="taxi"/>
    </person>
    <person id="76" type="adult" depart="1140.00">
        <walk edges="-80565710#18 80565710#11 -80565710#10 -80565710#7 -7247663#1 80798171#0 -7276260#4 -7276260#2 474688711" busStop="bs_7"/>
        <ride from="474688711" to="-7328604#14" lines="taxi"/>
    </person>
    <person id="77" type="adult" depart="1155.00">
        <walk edges="626800306#0 626091617#1 650708094#0 -474689218#8 -474689216 474689217 -626283217#4 626093615#0 626093615#2 626284343#0 474688711" busStop="bs_7"/>
        <ride from="474688711" to="80798171#11" lines="taxi"/>
    </person>
    <person id="78" type="adult" depart="1170.00">
        <walk edges="-7123182#2 7276317#0 -7198375#1 -7276267#3 -474688713#4 474688712#0" busStop="bs_0"/>
        <ride from="474688712#0" to="626283217#0" lines="taxi"/>
    </person>
    <person id="79" type="adult" depart="1185.00">
        <walk edges="-475159105#4 125135481#0 475159095 475159096#0 475159103#0 474688711" busStop="bs_7"/>
        <ride from="474688711" to="-7090087#1" lines="taxi"/>
    </person>
    <person id="80" type="adult" depart="1200.00">
        <walk edges="7276260#8 -7142807#5 626288024#0 626288022 626288020#2 626288020#0 626283151#0 704059434 626284345#4 626284345#0" busStop="bs_1"/>
        <ride from="626284345#0" to="7281814#0" lines="taxi"/>
    </person>
    <person id="81" type="adult" depart="1215.00">
        <walk edges="704059224 626093615#2 626284343#0 626283153#0" busStop="bs_2"/>
        <ride from="626283153#0" to="7276260#7" lines="taxi"/>
    </person>
    <person id="82" type="adult" depart="1230.00">
        <walk edges="626288020#0 626283151#0 704059434 626284345#4 626284345#0 474688712#0" busStop="bs_0"/>
        <ride from="474688712#0" to="-7276260#7" lines="taxi"/>
    </person>
    <person id="83" type="adult" depart="1245.00">
        <walk edges="-7281814#2 -125135491#7 -125135491#4 514518466#1 626288019 626288024#1 626288024#0 626288022 626288020#2 626288020#0 626283151#0 704059434 626284345#4 626284345#0 475159102#1" busStop="bs_3"/>
        <ride from="475159102#1" to="80565710#11" lines="taxi"/>
    </person>
    <person id="84" type="adult" depart="1260.00">
        <walk edges="80565714#10 -474688707 -474688714 -474688713#1 -474688713#3 -474688713#4 474688711 626284345#0" busStop="bs_1"/>
        <ride from="626284345#0" to="474688713#4" lines="taxi"/>
    </person>
    <person id="85" type="adult" depart="1275.00">
        <walk edges="7276260#8 -7276260#7 -7276260#6 -7276260#4 -7276260#2 474688712#0" busStop="bs_0"/>
        <ride from="474688712#0" to="7281814#0" lines="taxi"/>
    </person>
    <person id="86" type="adult" depart="1290.00">
        <walk edges="7102287#0 -80565710#1 -474688714 -474688713#1 -474688713#3 -474688713#4 474688712#0" busStop="bs_0"/>
        <ride from="474688712#0" to="-7098383#7" lines="taxi"/>
    </person>
    <person id="87" type="adult" depart="1305.00">
        <walk edges="80565462#8 626288019 626288024#1 626288024#0 626288022 626288020#2 626288020#0 626283151#0 704059434 626284345#4 626284345#0" busStop="bs_1"/>
        <ride from="626284345#0" to="-475159105#4" lines="taxi"/>
    </person>
    <person id="88" type="adult" depart="1320.00">
        <walk edges="973970332#0 -474688706 474688705#0 -80565714#2 -80565714#4 -80565714#9 -80565714#12 -474688707 -474688714 -474688713#1 -474688713#3 -474688713#4 474688712#0" busStop="bs_0"/>
        <ride from="474688712#0" to="-80798172#4" lines="taxi"/>
    </person>
    <person id="89" type="adult" depart="1335.00">
        <walk edges="-7142812#4 7142812#1 626288022 626288020#2 626288020#0 626283151#0 704059434 626284345#4 626284345#0 475159103#0" busStop="bs_6"/>
        <ride from="475159103#0" to="-7276317#7" lines="taxi"/>
    </person>
    <person id="90" type="adult" depart="1350.00">
        <walk edges="-7098388#2 -7328604#7 -80798171#12 -80798171#10 -80798171#9 80798171#7 626283151#0 626283151#1 626283153#0" busStop="bs_2"/>
        <ride from="626283153#0" to="80565710#4" lines="taxi"/>
    </person>
    <person id="91" type="adult" depart="1365.00">
        <walk edges="80798172#0 80798171#0 -80798171#5 626283151#0 704059434 626284345#4 626284345#0" busStop="bs_1"/>
        <ride from="626284345#0" to="80565710#4" lines="taxi"/>
    </person>
    <person id="92" type="adult" depart="1380.00">
        <walk edges="-7276324#3 -7123182#13 474689217 -626283217#4 626093615#0 626093615#2 626284343#0 474688712#0" busStop="bs_0"/>
        <ride from="474688712#0" to="475159101" lines="taxi"/>
    </person>
    <person id="93" type="adult" depart="1395.00">
        <walk edges="7098388#0 626283155#2 626283154 626283151#0 704059434 626284345#4 626284345#0 474688712#0" busStop="bs_0"/>
        <ride from="474688712#0" to="-475159105#4" lines="taxi"/>
    </person>
    <person id="94" type="adult" depart="1410.00">
        <walk edges="80798172#4 -7142807#3 -7142807#5 626288024#0 626288022 626288020#2 626288020#0 626283151#0 704059434 626284345#4 626284345#0 626284343#0 626093615#2 626093615#0 -626283217#4 -474689217" busStop="bs_4"/>
        <ride from="-474689217" to="-7328604#2" lines="taxi"/>
    </person>
    <person id="95" type="adult" depart="1425.00">
        <walk edges="474688712#0" busStop="bs_0"/>
        <ride from="474688712#0" to="-7328604#7" lines="taxi"/>
    </person>
    <person id="96" type="adult" depart="1440.00">
        <walk edges="80565710#7 -7247663#1 80798171#0 -7276260#4 -7276260#2 474688711" busStop="bs_7"/>
        <ride from="474688711" to="80798172#0" lines="taxi"/>
    </person>
    <person id="97" type="adult" depart="1455.00">
        <walk edges="-7098388#2 -7328604#7 -80798171#12 -80798171#10 -80798171#9 80798171#7 626283151#0 704059434 626284345#4 626284345#0 626284343#0 626093615#2 626093615#0 626283217#0" busStop="bs_5"/>
        <ride from="626283217#0" to="-7276260#4" lines="taxi"/>
    </person>
    <person id="98" type="adult" depart="1470.00">
        <walk edges="80798172#4 -7142807#3 -7142807#5 626288024#0 626288022 626288020#2 626288020#0 626283151#0 704059434 626284345#4 626284345#0 475159103#0" busStop="bs_6"/>
        <ride from="475159103#0" to="626283158" lines="taxi"/>
    </person>
    <person id="99" type="adult" depart="1485.00">
        <walk edges="7098388#0 626283155#2 626283154 626283151#0 626283151#1 626283153#0" busStop="bs_2"/>
        <ride from="626283153#0" to="-7281810#1" lines="taxi"/>
    </person>
    <person id="100" type="adult" depart="1500.00">
        <walk edges="-7328604#5 -80798171#12 -80798171#10 -80798171#9 80798171#7 626283151#0 704059434 626284345#4 626284345#0 474688712#0" busStop="bs_0"/>
        <ride from="474688712#0" to="-7276317#7" lines="taxi"/>
    </person>
    <person id="101" type="adult" depart="1515.00">
        <walk edges="-7288838#1 -7328604#2 475159105#1 125135481#0 475159095 475159096#0 475159103#0 626283153#0" busStop="bs_2"/>
        <ride from="626283153#0" to="80798172#4" lines="taxi"/>
    </person>
    <person id="102" type="adult" depart="1530.00">
        <walk edges="7098388#0 626283155#2 626283154 626283151#0 704059434 626284345#4 626284345#0 474688711" busStop="bs_7"/>
        <ride from="474688711" to="7098383#2" lines="taxi"/>
    </person>
    <person id="103" type="adult" depart="1545.00">
        <walk edges="-80798171#12 -80798171#10 -80798171#9 80798171#7 626283151#0 704059434 626284345#4 626284345#0" busStop="bs_1"/>
        <ride from="626284345#0" to="-7328604#5" lines="taxi"/>
    </person>
    <person id="104" type="adult" depart="1560.00">
        <walk edges="-80565462#3 -80565462#4 80565462#5 -7276260#8 -7276260#7 -7276260#6 -7276260#4 -7276260#2 474688711" busStop="bs_7"/>
        <ride from="474688711" to="7328604#11" lines="taxi"/>
    </person>
    <person id="105" type="adult" depart="1575.00">
        <walk edges="-7328604#5 -80798171#12 -80798171#10 -80798171#9 80798171#7 626283151#0 626283151#1 626283153#0" busStop="bs_2"/>
        <ride from="626283153#0" to="-80565710#13" lines="taxi"/>
    </person>
    <person id="106" type="adult" depart="1590.00">
        <walk edges="626288024#0 626288022 626288020#2 626288020#0 626283151#0 704059434 626284345#4 626284345#0" busStop="bs_1"/>
        <ride from="626284345#0" to="626800306#0" lines="taxi"/>
    </person>
    <person id="107" type="adult" depart="1605.00">
        <walk edges="-474688713#1 -474688713#3 -474688713#4 474688712#0" busStop="bs_0"/>
        <ride from="474688712#0" to="-7276317#7" lines="taxi"/>
    </person>
    <person id="108" type="adult" depart="1620.00">
        <walk edges="626283217#0 626093615#0 626093615#2 626284343#0 474688712#0" busStop="bs_0"/>
        <ride from="474688712#0" to="-7078477#1" lines="taxi"/>
    </person>
    <person id="109" type="adult" depart="1635.00">
        <walk edges="7090087#0 -80798171#9 80798171#7 626283151#0 704059434 626284345#4 626284345#0 475159103#0" busStop="bs_6"/>
        <ride from="475159103#0" to="-7328604#13" lines="taxi"/>
    </person>
    <person id="110" type="adult" depart="1650.00">
        <walk edges="475159105#1 125135481#0 475159095 475159096#0 475159103#0 474688712#0" busStop="bs_0"/>