<?xml version="1.0" encoding="UTF-8"?>

<!-- generated on 2022-07-06 16:15:56 by Eclipse SUMO duarouter Version 1.12.0
<configuration xmlns:xsi="http://www.w3.org/2001/XMLSchema-instance" xsi:noNamespaceSchemaLocation="http://sumo.dlr.de/xsd/duarouterConfiguration.xsd">

    <input>
        <net-file value="ChicagoAve.net.xml"/>
        <additional-files value="taxi.add.xml"/>
        <route-files value="trips.trips.xml"/>
    </input>

    <output>
        <output-file value="taxis.rou.xml"/>
        <alternatives-output value="taxis.rou.alt.xml"/>
    </output>

    <time>
        <begin value="0"/>
        <end value="3600.0"/>
    </time>

    <report>
        <no-warnings value="true"/>
        <ignore-errors value="true"/>
        <no-step-log value="true"/>
    </report>

</configuration>
-->

<routes xmlns:xsi="http://www.w3.org/2001/XMLSchema-instance" xsi:noNamespaceSchemaLocation="http://sumo.dlr.de/xsd/routes_file.xsd">
    <vType id="taxi" vClass="taxi" personCapacity="1">
        <param key="device.taxi.dropOffDuration" value="10"/>
        <param key="device.taxi.parking" value="false"/>
        <param key="device.taxi.pickUpDuration" value="5"/>
        <param key="has.taxi.device" value="true"/>
    </vType>
    <vehicle id="0" type="taxi" depart="0.00">
        <route edges="474689216 474689218#0 -474689218#8 -474689216 -474689217 -626283217#4 626093615#0 626093615#2 626284343#0 626284345#0 626284345#4 626284345#5 626288023 626288020#0 626288020#2 626288022 7142812#1 -7142812#4"/>
    </vehicle>
    <vehicle id="1" type="taxi" depart="30.00">
        <route edges="80798172#4 80565462#4 80565462#5 80565462#8 626283158 626283157 626283155#0 626283155#2 626283154 626283151#0 626283151#1 626283153#0 626282455#0 654487789#0 626283217#0"/>
    </vehicle>
    <vehicle id="2" type="taxi" depart="60.00">
        <route edges="7090087#0 80798171#10 80798171#11 7328604#6 -7098388#2"/>
    </vehicle>
    <vehicle id="3" type="taxi" depart="90.00">
        <route edges="7247663#0 80798171#0 80798171#3 626283151#0 626283151#1 626283153#0 626282455#0 654487789#0 626283217#0 474689217 7123182#14"/>
    </vehicle>
    <vehicle id="4" type="taxi" depart="120.00">
        <route edges="7098383#2 -7276260#6 80798171#3 80798171#7 80798171#9 80798171#10 80798171#11 -7328604#5 -7328604#2"/>
    </vehicle>
    <vehicle id="5" type="taxi" depart="150.00">
        <route edges="-626799488#6 626091617#1 650708094#0 -474689218#8 -474689216 -474689217 -626283217#4 626093615#0 626093615#2 626284343#0 626284345#0 626284345#4 626284345#5 626288023 626288020#0 626288020#2 626288022 626288024#0 626288024#1 626288019 -514518467#1"/>
    </vehicle>
    <vehicle id="6" type="taxi" depart="180.00">
        <route edges="7142812#5 -7328604#11 -7328604#10 -7328604#7 -80798171#12 -80798171#10 -80798171#9 -80798171#8 -80798171#5 -7276260#4 -7276260#2"/>
    </vehicle>
    <vehicle id="7" type="taxi" depart="210.00">
        <route edges="7090087#0 -80798171#9 -80798171#8 -80798171#5 -80798171#2 -7247663#1 7247663#0"/>
    </vehicle>
    <vehicle id="8" type="taxi" depart="240.00">
        <route edges="80565714#0 80565714#3 7123182#0 7123182#3 7123182#7 -7123182#13"/>
    </vehicle>
    <vehicle id="9" type="taxi" depart="270.00">
        <route edges="-474688713#4 474688713#4 474688711 626282455#0 654487789#0 626093615#0 626093615#2"/>
    </vehicle>
    <vehicle id="10" type="taxi" depart="300.00">
        <route edges="80798171#11 -80798171#12 -80798171#10 -80798171#9 -80798171#8 -80798171#5 -80798171#2 -7247663#1 80565710#7 80565710#8 80565710#11 7142807#0"/>
    </vehicle>
    <vehicle id="11" type="taxi" depart="330.00">
        <route edges="-474688713#3 474688713#2 474688713#4 474688711 626284345#0 626284345#4 626284345#5 626288023 626288020#0 626288020#2 626288022 7142812#1 7281814#0"/>
    </vehicle>
    <vehicle id="12" type="taxi" depart="360.00">
        <route edges="474688707 474688714 474688713#0 474688713#2 474688713#4 474688711 626284345#0 626284345#4 626284345#5 626288023 80798171#7 80798171#9 80798171#10 80798171#11 7328604#6 7328604#9 7328604#11 -7328604#11"/>
    </vehicle>
    <vehicle id="13" type="taxi" depart="390.00">
        <route edges="-7142807#5 -7276260#7 -7276260#6 80798171#3 626283151#0 626283151#1 626283153#0 626282455#0 654487789#0 626283217#0 474689217 -7123182#13 -7276324#3"/>
    </vehicle>
    <vehicle id="14" type="taxi" depart="420.00">
        <route edges="474688707 474688714 474688713#0 474688713#2 474688713#4 474688711 626284345#0 626284345#4 626284345#5 626288023 626288020#0 626288020#2 626288022 626288024#0 626288024#1 626288019 514518466#1 125135491#2 125135491#5 125135491#8 -125135491#9"/>
    </vehicle>
    <vehicle id="15" type="taxi" depart="450.00">
        <route edges="7276324#0 -7123182#6 -7123182#2 80565714#5 80565714#10 474688707 80565710#0 80565710#2 -80565710#3"/>
    </vehicle>
    <vehicle id="16" type="taxi" depart="480.00">
        <route edges="-80798171#9 -80798171#8 626288020#0 626288020#2 626288022 626288024#0 626288024#1 626288019 -514518467#1 -80565462#7 -80565462#4 -80565462#3 80565462#2"/>
    </vehicle>
    <vehicle id="17" type="taxi" depart="510.00">
        <route edges="80565714#5 80565714#10 474688707 80565710#0 80565710#2 80565710#4 80565710#7 80565710#8 80565710#11 80565710#14 80565462#2"/>
    </vehicle>
    <vehicle id="18" type="taxi" depart="540.00">
        <route edges="7328604#3 -80798171#12 -80798171#10 -80798171#9 -80798171#8 626283151#0 626283151#1 626283153#0 626282455#0 654487789#0 626283217#0 474689217 7123182#14"/>
    </vehicle>
    <vehicle id="19" type="taxi" depart="570.00">
        <route edges="7288835#0 626284345#4 626284345#5 626288023 80798171#7 80798171#9 80798171#10 80798171#11 7328604#6 -7098388#2"/>
    </vehicle>
    <vehicle id="20" type="taxi" depart="600.00">
        <route edges="7276260#3 80798171#3"/>
    </vehicle>
    <vehicle id="21" type="taxi" depart="630.00">
        <route edges="80565714#5 80565714#10 474688707 80565710#0 80565710#2 80565710#4 80565710#7 80565710#8 -80565710#10"/>
    </vehicle>
    <vehicle id="22" type="taxi" depart="660.00">
        <route edges="7288838#0 -7328604#2 475159105#1 125135481#0 475159095 475159096#0 475159103#0 474688712#0 -474688713#4 -474688713#3 474688713#2"/>
    </vehicle>
    <vehicle id="23" type="taxi" depart="690.00">
        <route edges="80565710#14 80565462#2 80565462#4 80565462#5 80565462#8 514518466#1 125135491#2 125135491#5 -7281814#2"/>
    </vehicle>
    <vehicle id="24" type="taxi" depart="720.00">
        <route edges="80798171#0 80798171#3 626283151#0 626283151#1 626283153#0 474688712#0 -474688713#4 7276267#0 -7276267#3"/>
    </vehicle>
    <vehicle id="25" type="taxi" depart="750.00">
        <route edges="7098388#0 -7328604#7 -7328604#5 -7328604#2 475159105#1 125135481#0 475159095"/>
    </vehicle>
    <vehicle id="26" type="taxi" depart="780.00">
        <route edges="7276267#0 -7276267#3 474688713#4 474688711 626284345#0 -7288835#1"/>
    </vehicle>
    <vehicle id="27" type="taxi" depart="810.00">
        <route edges="7276267#0 -7276267#3 474688713#4 474688711 626284345#0 626284345#4 626284345#5 626288023 -80798171#5 -80798171#2 80798171#0"/>
    </vehicle>
    <vehicle id="28" type="taxi" depart="840.00">
        <route edges="7078477#0 -7247663#1 -80565710#6 -80565710#3 -80565710#1 -474688707 -80565714#12 -80565714#9"/>
    </vehicle>
    <vehicle id="29" type="taxi" depart="870.00">
        <route edges="80798171#7 -80798171#8 626283151#0 626283151#1 626283153#0 626282455#0 654487789#0 626283217#0 474689217 -7123182#13 -7123182#6"/>
    </vehicle>
    <vehicle id="30" type="taxi" depart="900.00">
        <route edges="-7276260#6 80798171#3 626283151#0 626283151#1 626283153#0 475159102#1 475159101 475159104#0 -475159105#4 475159105#1"/>
    </vehicle>
    <vehicle id="31" type="taxi" depart="930.00">
        <route edges="626284345#0 626284345#4 704059434 626283151#1 626283153#0 626282455#0 654487789#0 626283217#0 474689217 474689216 474689218#0"/>
    </vehicle>
    <vehicle id="32" type="taxi" depart="960.00">
        <route edges="-80798171#2 -7247663#1 -80565710#6 -80565710#3 -80565710#1 474688714 474688713#0 474688713#2 474688713#4 7276260#0"/>
    </vehicle>
    <vehicle id="33" type="taxi" depart="990.00">
        <route edges="7142812#1 7281814#0 -125135491#7 -125135491#4 -125135491#1 -514518467#1 -80565462#7 -80565462#4 80565462#4"/>
    </vehicle>
    <vehicle id="34" type="taxi" depart="1020.00">
        <route edges="7098383#0 -80798172#1 80798171#0 80798171#3 626283151#0 626283151#1"/>
    </vehicle>
    <vehicle id="35" type="taxi" depart="1050.00">
        <route edges="125135481#0 475159095 475159096#0 475159103#0 626284345#0 626284345#4 626284345#5 626288023 626288020#0 626288020#2 626288022 626283155#0 7098388#0"/>
    </vehicle>
    <vehicle id="36" type="taxi" depart="1080.00">
        <route edges="7276317#0 7123182#3 7123182#7 7123182#14 -7123182#18"/>
    </vehicle>
    <vehicle id="37" type="taxi" depart="1110.00">
        <route edges="-7123182#18 -474689217 -626283217#4 626093615#0 626093615#2 626284343#0 626282455#0"/>
    </vehicle>
    <vehicle id="38" type="taxi" depart="1140.00">
        <route edges="626283155#0 626283155#2 626283154 626283151#0 626283151#1 626283153#0 474688712#0 -474688713#4 -474688713#3 -474688713#1 -474688714 -474688707 -80565714#12 -7198375#6"/>
    </vehicle>
    <vehicle id="39" type="taxi" depart="1170.00">
        <route edges="-7098383#1 -80565710#10 -80565710#7 -80565710#6 -80565710#3 -80565710#1 474688714 474688713#0 474688713#2 474688713#4 7276260#0"/>
    </vehicle>
    <vehicle id="40" type="taxi" depart="1200.00">
        <route edges="7276317#0 -7123182#2 7123182#0"/>
    </vehicle>
    <vehicle id="41" type="taxi" depart="1230.00">
        <route edges="-7098383#1 -80565710#10 -80565710#7 -80565710#6 -80565710#3 -80565710#1 -474688707 -80565714#12 -80565714#9 -80565714#4"/>
    </vehicle>
    <vehicle id="42" type="taxi" depart="1260.00">
        <route edges="-7123182#13 7123182#7 474689216 474689218#0 626091626#0 626091626#1 626112463#0 626112459#0 626091619#0 626799488#0"/>
    </vehicle>
    <vehicle id="43" type="taxi" depart="1290.00">
        <route edges="626282455#0 654487789#0 626093615#0 626093615#2 626284343#0 626284345#0 626284345#4 626284345#5 626288023 626288020#0 -7098383#7 -7098383#3"/>
    </vehicle>
    <vehicle id="44" type="taxi" depart="1320.00">
        <route edges="-7276260#4 -7276260#2 -474688713#4 7276267#0 -7276267#3"/>
    </vehicle>
    <vehicle id="45" type="taxi" depart="1350.00">
        <route edges="-80565710#7 7247663#0 80798171#0 80798171#3 626283151#0 626283151#1 626283153#0 626282455#0 654487789#0 626283217#0 474689217 -474689217 -626283217#4"/>
    </vehicle>
    <vehicle id="46" type="taxi" depart="1380.00">
        <route edges="-80798171#10 -80798171#9 -80798171#8 626283151#0 626283151#1 626283153#0 626282455#0 654487789#0 626283217#0 474689217 474689216 474689218#0 626091626#0 626091626#1 626112463#0 626112459#0 626091619#0 626091617#1"/>
    </vehicle>
    <vehicle id="47" type="taxi" depart="1410.00">
        <route edges="474688713#2 474688713#4 474688711 626282455#0 654487789#0 626283217#0 474689217 474689216 474689218#0 626091626#0 626091626#1 626112463#0 626112459#0 626091619#0 626800306#0"/>
    </vehicle>
    <vehicle id="48" type="taxi" depart="1440.00">
        <route edges="7142812#1 7281814#0 -125135491#7 -125135491#4 -125135491#1 -514518467#1 80565462#8"/>
    </vehicle>
    <vehicle id="49" type="taxi" depart="1470.00">
        <route edges="80565710#4 7247663#0 80798171#0 80798171#3 80798171#7 80798171#9 80798171#10 80798171#11 -7328604#5 7328604#3"/>
    </vehicle>
    <vehicle id="50" type="taxi" depart="1500.00">
        <route edges="626283155#0 626283155#2 626283154 626288020#0 626288020#2 626288022 626288024#0 -7142807#5"/>
    </vehicle>
    <vehicle id="51" type="taxi" depart="1530.00">
        <route edges="7276317#0 7123182#3 7123182#7 -474689217 -626283217#4 626093615#0 626093615#2 626284343#0 626284345#0 626284345#4 626284345#5 626288023 626288020#0 626288020#2 626288022 626288024#0 626288024#1 626288019 -514518467#1 -7276260#8"/>
    </vehicle>
    <vehicle id="52" type="taxi" depart="1560.00">
        <route edges="7090087#0 -80798171#9 -80798171#8 626288020#0 -7098383#7 -7098383#3 -7098383#1"/>
    </vehicle>
    <vehicle id="53" type="taxi" depart="1590.00">
        <route edges="-80565714#2 -474688705#1 -474688706 973970332#0 626091617#1 650708094#0 -474689218#8 -474689216 -474689217 -626283217#4 626093615#0 626093615#2 626284343#0 626284345#0 626284345#4 626284345#5 626288023 626288020#0 626288020#2 626288022 626288024#0 -7142807#5 7142807#4"/>
    </vehicle>
    <vehicle id="54" type="taxi" depart="1620.00">
        <route edges="7098388#0 -7328604#7 -80798171#12 -80798171#10 -80798171#9 -80798171#8 -80798171#5"/>
    </vehicle>
    <vehicle id="55" type="taxi" depart="1650.00">
        <route edges="7198375#2 80565714#10 474688707 474688714 474688713#0 474688713#2 474688713#4 474688711"/>
    </vehicle>
    <vehicle id="56" type="taxi" depart="1680.00">
        <route edges="7276324#0 7123182#7 -474689217 -626283217#4 626093615#0 626093615#2 626284343#0 626284345#0 626284345#4 626284345#5"/>
    </vehicle>
    <vehicle id="57" type="taxi" depart="1710.00">
        <route edges="80798172#4 80565462#4 80565462#5 80565462#8 626283158 626283157 626283155#0 626283155#2 626283154 80798171#7 -7127213#1"/>
    </vehicle>
    <vehicle id="58" type="taxi" depart="1740.00">
        <route edges="-7281814#2 -7142812#4 626283155#0 626283155#2 626283154 626283151#0 626283151#1 626283153#0 626282455#0 654487789#0 626283217#0 474689217 7123182#14 -7237382#1"/>
    </vehicle>
    <vehicle id="59" type="taxi" depart="1770.00">
        <route edges="-474688713#3 474688713#2 474688713#4 474688711 475159102#1 475159101 475159104#0 -475159105#4"/>
    </vehicle>
    <vehicle id="60" type="taxi" depart="1800.00">
        <route edges="-514518467#1 80565462#8 626283158 626283157 626283155#0 626283155#2 626283154 80798171#7 -7127213#1"/>
    </vehicle>
    <vehicle id="61" type="taxi" depart="1830.00">
        <route edges="7276324#0 7123182#7 -474689217 -626283217#4 626093615#0 626093615#2 626284343#0 626284345#0 626284345#4 704059434 626283151#1"/>
    </vehicle>
    <vehicle id="62" type="taxi" depart="1860.00">
        <route edges="7328604#3 7328604#6 7328604#9 7328604#11 7328604#12 7328604#13 7328604#14 -125135491#9 -125135491#7 125135491#5"/>
    </vehicle>
    <vehicle id="63" type="taxi" depart="1890.00">
        <route edges="-474689218#8 -474689216 -474689217 -626283217#4 626093615#0 626093615#2 626284343#0 475159102#1 475159101 475159104#0 -475159105#4 7328604#0 -7288838#1"/>
    </vehicle>
    <vehicle id="64" type="taxi" depart="1920.00">
        <route edges="80565710#11 -80565710#13 -80565710#10 -80565710#7 -80565710#6 -80565710#3 -80565710#1 474688714 474688713#0 474688713#2 474688713#4 474688711 475159102#1 475159101 475159104#0 125135481#0 475159095 475159096#0"/>
    </vehicle>
    <vehicle id="65" type="taxi" depart="1950.00">
        <route edges="7198375#0 7198375#2 80565714#10 474688707 80565710#0 80565710#2 80565710#4 80565710#7 80565710#8 7098383#0"/>
    </vehicle>
    <vehicle id="66" type="taxi" depart="1980.00">
        <route edges="-7247663#1 7247663#0 80798171#0 80798171#3 626283151#0 626283151#1 626283153#0 626282455#0 654487789#0 626283217#0 474689217 474689216 474689218#0"/>
    </vehicle>
    <vehicle id="67" type="taxi" depart="2010.00">
        <route edges="-7276260#7 7276260#7 7276260#8 -80565462#7 -80565462#4"/>
    </vehicle>
    <vehicle id="68" type="taxi" depart="2040.00">
        <route edges="-80565710#10 80565710#8 80565710#11 80565710#14 80565462#2 80565462#4 80565462#5 -7276260#8"/>
    </vehicle>
    <vehicle id="69" type="taxi" depart="2070.00">
        <route edges="7276317#0 7123182#3 7123182#7 -474689217 -626283217#4 626093615#0 626093615#2 626284343#0 626284345#0 626284345#4 626284345#5 626288023 626288020#0 626288020#2 626288022 626288024#0 626288024#1 626288019 -514518467#1 -80565462#7 -80565462#4 -80565462#3"/>
    </vehicle>
    <vehicle id="70" type="taxi" depart="2100.00">
        <route edges="626282455#0 654487789#0 626093615#0 626093615#2 626284343#0 626284345#0 626284345#4 626284345#5 626288023 80798171#7 80798171#9 80798171#10 80798171#11 7328604#6 7328604#9 7328604#11 7328604#12 7328604#13"/>
    </vehicle>
    <vehicle id="71" type="taxi" depart="2130.00">
        <route edges="7098383#2 7276260#7 7276260#8 80565462#8"/>
    </vehicle>
    <vehicle id="72" type="taxi" depart="2160.00">
        <route edges="-80798172#4 80798172#4 80565462#4 80565462#5 80565462#8 514518466#1 125135491#2"/>
    </vehicle>
    <vehicle id="73" type="taxi" depart="2190.00">
        <route edges="7098388#0 -7328604#7 -80798171#12 -80798171#10 -80798171#9 -80798171#8 626283151#0 626283151#1 626283153#0 474688712#0 -474688713#4 -474688713#3 -474688713#1 -474688714 474688714"/>
    </vehicle>
    <vehicle id="74" type="taxi" depart="2220.00">
        <route edges="-80565714#2 -474688705#1 -474688706 474688706 474688705#0 80565714#0 80565714#3 80565714#5 -7198375#6 7276317#0"/>
    </vehicle>
    <vehicle id="75" type="taxi" depart="2250.00">
        <route edges="7281810#0 -7281810#1"/>
    </vehicle>
    <vehicle id="76" type="taxi" depart="2280.00">
        <route edges="125135491#5 -125135491#7 -125135491#4 -125135491#1 -514518467#1 80565462#8"/>
    </vehicle>
    <vehicle id="77" type="taxi" depart="2310.00">
        <route edges="-7328604#2 475159105#1 125135481#0 475159095 475159096#0 475159103#0 474688712#0 -474688713#4 -474688713#3 -474688713#1 -474688714 -474688707 -80565714#12 -80565714#9"/>
    </vehicle>
    <vehicle id="78" type="taxi" depart="2340.00">
        <route edges="626283155#0 626283155#2 626283154 626283151#0 626283151#1 626283153#0 626282455#0 654487789#0 626283217#0 474689217 474689216 474689218#0 626091626#0 626091626#1 626112463#0 626112459#0 626091619#0 626800306#0 973970332#0"/>
    </vehicle>
    <vehicle id="79" type="taxi" depart="2370.00">
        <route edges="80565714#5 80565714#10 474688707 80565710#0 80565710#2 80565710#4 80565710#7 80565710#8 80565710#11 7142807#0"/>
    </vehicle>
    <vehicle id="80" type="taxi" depart="2400.00">
        <route edges="654487789#0 626093615#0 626093615#2 626284343#0 475159102#1 475159101 475159104#0 -475159105#4 7328604#0"/>
    </vehicle>
    <vehicle id="81" type="taxi" depart="2430.00">
        <route edges="-7328604#14 -7328604#13 -7328604#12 -7328604#11 -7328604#10 -7098388#2"/>
    </vehicle>
    <vehicle id="82" type="taxi" depart="2460.00">
        <route edges="-80565714#4 80565714#3 80565714#5 80565714#10 474688707 80565710#0 80565710#2 80565710#4 80565710#7 80565710#8 80565710#11 -80565710#13"/>
    </vehicle>
    <vehicle id="83" type="taxi" depart="2490.00">
        <route edges="7123182#3 -7276324#3"/>
    </vehicle>
    <vehicle id="84" type="taxi" depart="2520.00">
        <route edges="7328604#11 -7328604#11 -7328604#10 -7328604#7 -80798171#12 -80798171#10 -80798171#9 -80798171#8 -80798171#5 -80798171#2 -7247663#1 -80565710#6 -80565710#3 80565710#2"/>
    </vehicle>
    <vehicle id="85" type="taxi" depart="2550.00">
        <route edges="7078477#0 80798171#0 80798171#3 626283151#0 626283151#1 626283153#0 626282455#0 654487789#0 626283217#0 474689217 474689216 474689218#0 626091626#0 626091626#1 626112463#0 626112459#0 626091619#0 626800306#0"/>
    </vehicle>
    <vehicle id="86" type="taxi" depart="2580.00">
        <route edges="474688713#4 -474688713#4 -474688713#3 -474688713#1 -474688714 80565710#0"/>
    </vehicle>
    <vehicle id="87" type="taxi" depart="2610.00">
        <route edges="-7288838#1 7281810#0 -80798171#10 -80798171#9 -80798171#8 626283151#0 626283151#1 626283153#0 626284345#0"/>
    </vehicle>
    <vehicle id="88" type="taxi" depart="2640.00">
        <route edges="80565714#5 -7198375#6 7276317#0"/>
    </vehicle>
    <vehicle id="89" type="taxi" depart="2670.00">
        <route edges="-80798171#2 80798171#0 80798171#3 626288020#0 626288020#2 626288022 626288024#0 626288024#1 626288019 514518466#1 125135491#2 125135491#5"/>
    </vehicle>
    <vehicle id="90" type="taxi" depart="2700.00">
        <route edges="80565462#8 514518466#1 125135491#2 125135491#5 125135491#8 -7328604#14 -7328604#13 -7328604#12 -7328604#11 -7328604#10"/>
    </vehicle>
    <vehicle id="91" type="taxi" depart="2730.00">
        <route edges="626283151#1 626283153#0 626284345#0 626284345#4 626284345#5 626288023 626288020#0 626288020#2 626288022 626288024#0 626288024#1 626288019 -514518467#1 -80565462#7 -80565462#4 -80565462#3"/>
    </vehicle>
    <vehicle id="92" type="taxi" depart="2760.00">
        <route edges="80565462#4 80565462#5 80565462#8 514518466#1 125135491#2 125135491#5 125135491#8 -7328604#14 -7328604#13 -7328604#12"/>
    </vehicle>
    <vehicle id="93" type="taxi" depart="2790.00">
        <route edges="-7123182#13 7123182#7 -474689217 -626283217#4 626093615#0 626093615#2 626284343#0 626284345#0 626284345#4 626284345#5 626288023 626288020#0 -7098383#7 -7098383#3 -80798172#1"/>
    </vehicle>
    <vehicle id="94" type="taxi" depart="2820.00">
        <route edges="704059224 654487789#0 626093615#0 626093615#2 626284343#0 626284345#0 626284345#4 626284345#5 626288023 626288020#0 626288020#2 626288022 7142812#1"/>
    </vehicle>
    <vehicle id="95" type="taxi" depart="2850.00">
        <route edges="80798171#11 -80798171#12 -80798171#10 -80798171#9 -80798171#8 626283151#0 626283151#1 626283153#0 474688712#0 -474688713#4 -474688713#3 -474688713#1 -474688714 -474688707 -80565714#12"/>
    </vehicle>
    <vehicle id="96" type="taxi" depart="2880.00">
        <route edges="-7281814#2 -7142812#4 626283155#0 626283155#2 626283154 626283151#0 626283151#1 626283153#0 475159102#1 475159101 475159104#0"/>
    </vehicle>
    <vehicle id="97" type="taxi" depart="2910.00">
        <route edges="-80565714#2 -474688705#1 -474688706 474688706 474688705#0 80565714#0 80565714#3 80565714#5 -7198375#6 -7198375#1"/>
    </vehicle>
    <vehicle id="98" type="taxi" depart="2940.00">
        <route edges="474689218#0 -474689218#8 -474689216 -7123182#13 -7123182#6 7123182#3"/>
    </vehicle>
    <vehicle id="99" type="taxi" depart="2970.00">
        <route edges="-7328604#14 7328604#14 -125135491#9 -125135491#7 -125135491#4 -125135491#1 626283158 626283157 626283155#0 626283155#2 626283154 626283151#0 626283151#1 626283153#0 626282455#0 654487789#0 626283217#0 474689217 -7123182#13 -7123182#6"/>
    </vehicle>
    <vehicle id="100" type="taxi" depart="3000.00">
        <route edges="7078477#0 80798171#0 80798171#3 -80798171#5"/>
    </vehicle>
    <vehicle id="101" type="taxi" depart="3030.00">
        <route edges="80798171#7 -80798171#8 626288020#0 626288020#2 626288022 626288024#0 626288024#1 626288019 -514518467#1 -7276260#8"/>
    </vehicle>
    <vehicle id="102" type="taxi" depart="3060.00">
        <route edges="-80565462#4 -80798172#4 -7142807#1"/>
    </vehicle>
    <vehicle id="103" type="taxi" depart="3090.00">
        <route edges="7281810#0 -80798171#10 -80798171#9 -80798171#8 626283151#0 626283151#1 626283153#0 626282455#0 654487789#0 626283217#0 474689217 -7123182#13 -7276324#3"/>
    </vehicle>
    <vehicle id="104" type="taxi" depart="3120.00">
        <route edges="-80565710#13 -80565710#10 -80565710#7 7247663#0 80798171#0 80798171#3 80798171#7 80798171#9 80798171#10 80798171#11 7328604#6 7328604#9"/>
    </vehicle>
    <vehicle id="105" type="taxi" depart="3150.00">
        <route edges="-7142812#4 626288024#0 -7142807#5 -7276260#7 -7276260#6"/>
    </vehicle>
    <vehicle id="106" type="taxi" depart="3180.00">
        <route edges="80798171#10 -80798171#10 -80798171#9 -80798171#8 626283151#0 626283151#1 626283153#0 474688712#0 -474688713#4 7276267#0 7198375#0"/>
    </vehicle>
    <vehicle id="107" type="taxi" depart="3210.00">
        <route edges="-80565714#4 80565714#3 80565714#5 80565714#10 474688707 474688714 474688713#0 474688713#2 474688713#4 474688711 626284345#0 626284345#4 626284345#5 626288023 626288020#0 626288020#2 626288022 7142812#1"/>
    </vehicle>
    <vehicle id="108" type="taxi" depart="3240.00">
        <route edges="-7276267#3 474688713#4 474688711 626284345#0 626284345#4 626284345#5 626288023 626288020#0 -7098383#7 -7098383#3 -7098383#1"/>
    </vehicle>
    <vehicle id="109" type="taxi" depart="3270.00">
        <route edges="626282455#0 654487789#0 626283217#0 474689217 474689216"/>
    </vehicle>
    <vehicle id="110" type="taxi" depart="3300.00">
        <route edges="7123182#0 -7123182#2 80565714#5 80565714#10 474688707 80565710#0 80565710#2 80565710#4 7247663#0 80798172#0"/>
    </vehicle>
    <vehicle id="111" type="taxi" depart="3330.00">
        <route edges="80565714#10 474688707 474688714 474688713#0 474688713#2 474688713#4 474688711 626284345#0 626284345#4 626284345#5 626288023 80798171#7 80798171#9 80798171#10 80798171#11 7328604#6 -7098388#2"/>
    </vehicle>
    <vehicle id="112" type="taxi" depart="3360.00">
        <route edges="-7276267#3"/>
    </vehicle>
    <vehicle id="113" type="taxi" depart="3390.00">
        <route edges="-80565710#18 -80565710#13 -80565710#10 -80565710#7 7247663#0 80798172#0"/>
    </vehicle>
    <vehicle id="114" type="taxi" depart="3420.00">
        <route edges="125135481#0 475159095 475159096#0 475159103#0 475159102#1 475159101 475159104#0 -475159105#4"/>
    </vehicle>
    <vehicle id="115" type="taxi" depart="3450.00">
        <route edges="7098388#0 -7328604#7 -80798171#12 -80798171#10 -80798171#9 -80798171#8 -80798171#5 -80798171#2 -7247663#1 80565710#7 80565710#8 -80565710#10"/>
    </vehicle>
    <vehicle id="116" type="taxi" depart="3480.00">
        <route edges="7127213#0 -80798171#8 -80798171#5 -80798171#2 -7247663#1 -80565710#6 80565710#4"/>
    </vehicle>
    <vehicle id="117" type="taxi" depart="3510.00">
        <route edges="-7142807#1 -80565710#13 -80565710#10 -80565710#7 7247663#0 80798171#0 80798171#3 80798171#7 80798171#9 80798171#10 80798171#11 7328604#6 7328604#9 7328604#11 -7142812#6"/>
    </vehicle>
    <vehicle id="118" type="taxi" depart="3540.00">
        <route edges="626283217#0 474689217 -474689217 -626283217#4 626093615#0 626093615#2 626284343#0 474688712#0 -474688713#4 -474688713#3 -474688713#1 -474688714 80565710#0"/>
    </vehicle>
    <vehicle id="119" type="taxi" depart="3570.00">
        <route edges="-80798171#2 -7247663#1 -80565710#6 -80565710#3 -80565710#1 -474688707 -80565714#12 -80565714#9 7123182#0 -7123182#2"/>
    </vehicle>
</routes>
